
  -OEChem-03232314423D

 49 51  0     0  0  0  0  0  0999 V2000
   37.5938   32.5886   12.0225 C   0  0  0  0  0  0  0  0  0  0  0  0
   37.7547   33.3567   13.1756 C   0  0  0  0  0  0  0  0  0  0  0  0
   38.6391   31.7841   11.5689 C   0  0  0  0  0  0  0  0  0  0  0  0
   38.9610   33.3205   13.8750 C   0  0  0  0  0  0  0  0  0  0  0  0
   45.4519   36.6678   14.2663 C   0  0  0  0  0  0  0  0  0  0  0  0
   46.3779   37.6066   14.6696 C   0  0  0  0  0  0  0  0  0  0  0  0
   45.6383   35.5106   15.0660 C   0  0  0  0  0  0  0  0  0  0  0  0
   39.8454   31.7479   12.2682 C   0  0  0  0  0  0  0  0  0  0  0  0
   40.0064   32.5161   13.4213 C   0  0  0  0  0  0  0  0  0  0  0  0
   46.6753   35.7730   15.9382 C   0  0  0  0  0  0  0  0  0  0  0  0
   44.9081   34.2770   15.0006 C   0  0  0  0  0  0  0  0  0  0  0  0
   41.5337   33.1981   15.3046 C   0  0  0  0  0  0  0  0  0  0  0  0
   47.2977   34.9584   17.0213 C   0  0  0  0  0  0  0  0  0  0  0  0
   48.2264   37.6614   16.3737 C   0  0  0  0  0  0  0  0  0  0  0  0
   48.5889   36.9045   17.6538 C   0  0  0  0  0  0  0  0  0  0  0  0
   42.0316   31.6767   11.0426 C   0  0  0  0  0  0  0  0  0  0  0  0
   43.2575   35.1506   16.6844 C   0  0  0  0  0  0  0  0  0  0  0  0
   40.9479   30.8772   11.7590 C   0  0  0  0  0  0  0  0  0  0  0  0
   42.9482   32.8846   15.7526 C   0  0  0  0  0  0  0  0  0  0  0  0
   47.1066   37.0509   15.6816 N   0  0  0  0  0  0  0  0  0  0  0  0
   48.6259   35.4595   17.4038 N   0  0  0  0  0  0  0  0  0  0  0  0
   41.2225   32.4933   14.1448 N   0  0  0  0  0  0  0  0  0  0  0  0
   43.7423   34.1107   15.7877 N   0  0  0  0  0  0  0  0  0  0  0  0
   45.3304   33.3920   14.2301 O   0  0  0  0  0  0  0  0  0  0  0  0
   40.8065   33.9668   15.9255 O   0  0  0  0  0  0  0  0  0  0  0  0
   36.6550   32.6170   11.4775 H   0  0  0  0  0  0  0  0  0  0  0  0
   36.9409   33.9837   13.5285 H   0  0  0  0  0  0  0  0  0  0  0  0
   38.5037   31.1897   10.6692 H   0  0  0  0  0  0  0  0  0  0  0  0
   39.0738   33.9234   14.7724 H   0  0  0  0  0  0  0  0  0  0  0  0
   44.7221   36.8062   13.4803 H   0  0  0  0  0  0  0  0  0  0  0  0
   46.5689   38.6128   14.3221 H   0  0  0  0  0  0  0  0  0  0  0  0
   46.6565   34.9575   17.9096 H   0  0  0  0  0  0  0  0  0  0  0  0
   47.3844   33.9169   16.6894 H   0  0  0  0  0  0  0  0  0  0  0  0
   47.9259   38.6905   16.6022 H   0  0  0  0  0  0  0  0  0  0  0  0
   49.0778   37.6835   15.6853 H   0  0  0  0  0  0  0  0  0  0  0  0
   49.5614   37.2385   18.0367 H   0  0  0  0  0  0  0  0  0  0  0  0
   47.8503   37.1231   18.4323 H   0  0  0  0  0  0  0  0  0  0  0  0
   41.6116   32.2506   10.2095 H   0  0  0  0  0  0  0  0  0  0  0  0
   42.8010   31.0099   10.6411 H   0  0  0  0  0  0  0  0  0  0  0  0
   42.5168   32.3822   11.7256 H   0  0  0  0  0  0  0  0  0  0  0  0
   42.5606   35.8070   16.1427 H   0  0  0  0  0  0  0  0  0  0  0  0
   42.7378   34.6872   17.5360 H   0  0  0  0  0  0  0  0  0  0  0  0
   44.1082   35.7431   17.0524 H   0  0  0  0  0  0  0  0  0  0  0  0
   41.4025   30.3137   12.5883 H   0  0  0  0  0  0  0  0  0  0  0  0
   40.5462   30.1159   11.0726 H   0  0  0  0  0  0  0  0  0  0  0  0
   43.4062   32.1719   15.0594 H   0  0  0  0  0  0  0  0  0  0  0  0
   42.9143   32.4351   16.7499 H   0  0  0  0  0  0  0  0  0  0  0  0
   48.9298   34.9831   18.2533 H   0  0  0  0  0  0  0  0  0  0  0  0
   41.9445   31.8867   13.7616 H   0  0  0  0  0  0  0  0  0  0  0  0
  1  2  2  0  0  0  0
  1  3  1  0  0  0  0
  2  4  1  0  0  0  0
  3  8  2  0  0  0  0
  4  9  2  0  0  0  0
  5  6  2  0  0  0  0
  5  7  1  0  0  0  0
  6 20  1  0  0  0  0
  7 10  2  0  0  0  0
  7 11  1  0  0  0  0
  8  9  1  0  0  0  0
  8 18  1  0  0  0  0
  9 22  1  0  0  0  0
 10 13  1  0  0  0  0
 10 20  1  0  0  0  0
 11 23  1  0  0  0  0
 11 24  2  0  0  0  0
 12 19  1  0  0  0  0
 12 22  1  0  0  0  0
 12 25  2  0  0  0  0
 13 21  1  0  0  0  0
 14 15  1  0  0  0  0
 14 20  1  0  0  0  0
 15 21  1  0  0  0  0
 16 18  1  0  0  0  0
 17 23  1  0  0  0  0
 19 23  1  0  0  0  0
  1 26  1  0  0  0  0
  2 27  1  0  0  0  0
  3 28  1  0  0  0  0
  4 29  1  0  0  0  0
  5 30  1  0  0  0  0
  6 31  1  0  0  0  0
 13 32  1  0  0  0  0
 13 33  1  0  0  0  0
 14 34  1  0  0  0  0
 14 35  1  0  0  0  0
 15 36  1  0  0  0  0
 15 37  1  0  0  0  0
 16 38  1  0  0  0  0
 16 39  1  0  0  0  0
 16 40  1  0  0  0  0
 17 41  1  0  0  0  0
 17 42  1  0  0  0  0
 17 43  1  0  0  0  0
 18 44  1  0  0  0  0
 18 45  1  0  0  0  0
 19 46  1  0  0  0  0
 19 47  1  0  0  0  0
 21 48  1  0  0  0  0
 22 49  1  0  0  0  0
M  END
> <Chemgauss4 Score>
-6.152820587158

> <Number of Confs>
200

> <og_smiles_field>
CCC1=CC=CC=C1NC(=O)CN(C)C(=O)C1=C2CNCCN2C=C1

$$$$

  -OEChem-03232314423D

 47 48  0     0  0  0  0  0  0999 V2000
   41.2732   33.5025   15.1280 C   0  0  0  0  0  0  0  0  0  0  0  0
   39.8854   34.5564   13.7870 C   0  0  0  0  0  0  0  0  0  0  0  0
   41.1558   34.6369   14.3027 C   0  0  0  0  0  0  0  0  0  0  0  0
   44.6464   35.2267   14.1112 C   0  0  0  0  0  0  0  0  0  0  0  0
   48.4590   37.9988   17.1989 C   0  0  0  0  0  0  0  0  0  0  0  0
   49.0064   38.8104   14.8845 C   0  0  0  0  0  0  0  0  0  0  0  0
   49.8611   38.4435   17.6076 C   0  0  0  0  0  0  0  0  0  0  0  0
   50.3775   39.2058   15.4261 C   0  0  0  0  0  0  0  0  0  0  0  0
   48.3959   37.6636   15.7027 C   0  0  0  0  0  0  0  0  0  0  0  0
   38.0124   32.9152   14.0648 C   0  0  0  0  0  0  0  0  0  0  0  0
   43.2377   34.5068   12.1627 C   0  0  0  0  0  0  0  0  0  0  0  0
   49.1519   36.1023   14.1173 C   0  0  0  0  0  0  0  0  0  0  0  0
   42.1853   35.6989   14.0446 C   0  0  0  0  0  0  0  0  0  0  0  0
   44.6405   35.9276   15.4588 C   0  0  0  0  0  0  0  0  0  0  0  0
   46.9588   37.3785   15.2679 C   0  0  0  0  0  0  0  0  0  0  0  0
   40.1655   32.7562   15.1393 N   0  0  0  0  0  0  0  0  0  0  0  0
   39.3400   33.4231   14.3146 N   0  0  0  0  0  0  0  0  0  0  0  0
   43.4045   35.1476   13.4654 N   0  0  0  0  0  0  0  0  0  0  0  0
   45.6823   34.7628   13.6278 O   0  0  0  0  0  0  0  0  0  0  0  0
   50.2954   39.5439   16.8099 O   0  0  0  0  0  0  0  0  0  0  0  0
   49.1636   36.4762   15.4848 O   0  0  0  0  0  0  0  0  0  0  0  0
   46.2878   35.9818   16.2025 S   0  0  0  0  0  0  0  0  0  0  0  0
   42.1182   33.1870   15.7234 H   0  0  0  0  0  0  0  0  0  0  0  0
   39.3361   35.1939   13.1076 H   0  0  0  0  0  0  0  0  0  0  0  0
   48.1702   37.1312   17.8037 H   0  0  0  0  0  0  0  0  0  0  0  0
   47.7565   38.8133   17.4164 H   0  0  0  0  0  0  0  0  0  0  0  0
   48.3435   39.6833   14.9374 H   0  0  0  0  0  0  0  0  0  0  0  0
   49.1085   38.5267   13.8306 H   0  0  0  0  0  0  0  0  0  0  0  0
   49.8548   38.7714   18.6519 H   0  0  0  0  0  0  0  0  0  0  0  0
   50.5850   37.6241   17.5255 H   0  0  0  0  0  0  0  0  0  0  0  0
   51.1130   38.4046   15.2880 H   0  0  0  0  0  0  0  0  0  0  0  0
   50.7470   40.0859   14.8901 H   0  0  0  0  0  0  0  0  0  0  0  0
   38.0638   32.2475   13.2008 H   0  0  0  0  0  0  0  0  0  0  0  0
   37.6580   32.3734   14.9461 H   0  0  0  0  0  0  0  0  0  0  0  0
   37.3375   33.7517   13.8632 H   0  0  0  0  0  0  0  0  0  0  0  0
   43.0093   33.4402   12.3048 H   0  0  0  0  0  0  0  0  0  0  0  0
   42.4115   34.9894   11.6199 H   0  0  0  0  0  0  0  0  0  0  0  0
   44.1666   34.6086   11.5825 H   0  0  0  0  0  0  0  0  0  0  0  0
   49.7449   35.1945   13.9819 H   0  0  0  0  0  0  0  0  0  0  0  0
   49.5653   36.9139   13.5132 H   0  0  0  0  0  0  0  0  0  0  0  0
   48.1211   35.9106   13.8100 H   0  0  0  0  0  0  0  0  0  0  0  0
   41.7956   36.4547   13.3540 H   0  0  0  0  0  0  0  0  0  0  0  0
   42.4583   36.2149   14.9711 H   0  0  0  0  0  0  0  0  0  0  0  0
   44.2928   36.9569   15.3329 H   0  0  0  0  0  0  0  0  0  0  0  0
   43.9794   35.3924   16.1462 H   0  0  0  0  0  0  0  0  0  0  0  0
   46.9364   37.1430   14.2036 H   0  0  0  0  0  0  0  0  0  0  0  0
   46.3401   38.2589   15.4437 H   0  0  0  0  0  0  0  0  0  0  0  0
  1  3  1  0  0  0  0
  1 16  2  0  0  0  0
  2  3  2  0  0  0  0
  2 17  1  0  0  0  0
  3 13  1  0  0  0  0
  4 14  1  0  0  0  0
  4 18  1  0  0  0  0
  4 19  2  0  0  0  0
  5  7  1  0  0  0  0
  5  9  1  0  0  0  0
  6  8  1  0  0  0  0
  6  9  1  0  0  0  0
  7 20  1  0  0  0  0
  8 20  1  0  0  0  0
  9 15  1  0  0  0  0
  9 21  1  0  0  0  0
 10 17  1  0  0  0  0
 11 18  1  0  0  0  0
 12 21  1  0  0  0  0
 13 18  1  0  0  0  0
 14 22  1  0  0  0  0
 15 22  1  0  0  0  0
 16 17  1  0  0  0  0
  1 23  1  0  0  0  0
  2 24  1  0  0  0  0
  5 25  1  0  0  0  0
  5 26  1  0  0  0  0
  6 27  1  0  0  0  0
  6 28  1  0  0  0  0
  7 29  1  0  0  0  0
  7 30  1  0  0  0  0
  8 31  1  0  0  0  0
  8 32  1  0  0  0  0
 10 33  1  0  0  0  0
 10 34  1  0  0  0  0
 10 35  1  0  0  0  0
 11 36  1  0  0  0  0
 11 37  1  0  0  0  0
 11 38  1  0  0  0  0
 12 39  1  0  0  0  0
 12 40  1  0  0  0  0
 12 41  1  0  0  0  0
 13 42  1  0  0  0  0
 13 43  1  0  0  0  0
 14 44  1  0  0  0  0
 14 45  1  0  0  0  0
 15 46  1  0  0  0  0
 15 47  1  0  0  0  0
M  END
> <Chemgauss4 Score>
-6.585230827332

> <Number of Confs>
200

> <og_smiles_field>
COC1(CSCC(=O)N(C)CC2=CN(C)N=C2)CCOCC1

$$$$

  -OEChem-03232314423D

 49 52  0     1  0  0  0  0  0999 V2000
   47.1139   36.8209   18.5922 C   0  0  0  0  0  0  0  0  0  0  0  0
   47.7813   38.0236   18.3607 C   0  0  0  0  0  0  0  0  0  0  0  0
   46.5799   36.1024   17.5224 C   0  0  0  0  0  0  0  0  0  0  0  0
   47.9146   38.5080   17.0595 C   0  0  0  0  0  0  0  0  0  0  0  0
   38.2744   32.6688   13.4195 C   0  0  0  0  0  0  0  0  0  0  0  0
   37.8893   32.0612   12.2471 C   0  0  0  0  0  0  0  0  0  0  0  0
   40.0633   32.1945   12.1739 C   0  0  0  0  0  0  0  0  0  0  0  0
   46.7132   36.5869   16.2212 C   0  0  0  0  0  0  0  0  0  0  0  0
   39.6863   32.7556   13.3718 C   0  0  0  0  0  0  0  0  0  0  0  0
   47.3805   37.7897   15.9897 C   0  0  0  0  0  0  0  0  0  0  0  0
   46.1386   35.8064   15.1140 C   0  0  0  0  0  0  0  0  0  0  0  0
   40.6164   33.3246   14.3809 C   0  0  0  0  0  0  0  0  0  0  0  0
   42.3349   36.6784   14.2465 C   0  0  0  0  0  0  0  0  0  0  0  0
   43.3988   36.1678   13.2515 C   0  0  0  0  0  0  0  0  0  0  0  0
   43.8021   36.0025   16.1538 C   0  0  0  0  0  0  0  0  0  0  0  0
   42.4712   35.6970   15.4345 C   0  0  2  0  0  0  0  0  0  0  0  0
   44.0321   34.9898   14.0165 C   0  0  2  0  0  0  0  0  0  0  0  0
   42.8359   34.3692   14.7475 C   0  0  2  0  0  0  0  0  0  0  0  0
   48.5445   38.3326   12.1785 C   0  0  0  0  0  0  0  0  0  0  0  0
   44.7763   35.5781   15.1411 N   0  0  0  0  0  0  0  0  0  0  0  0
   47.5289   38.3060   14.6640 N   0  0  0  0  0  0  0  0  0  0  0  0
   41.8263   33.8127   13.8961 N   0  0  0  0  0  0  0  0  0  0  0  0
   46.9039   35.4222   14.2325 O   0  0  0  0  0  0  0  0  0  0  0  0
   40.2926   33.3195   15.5656 O   0  0  0  0  0  0  0  0  0  0  0  0
   49.9119   39.1811   14.2224 O   0  0  0  0  0  0  0  0  0  0  0  0
   49.4917   36.7077   13.9978 O   0  0  0  0  0  0  0  0  0  0  0  0
   38.9737   31.7687   11.4824 O   0  0  0  0  0  0  0  0  0  0  0  0
   49.0379   38.0782   13.8685 S   0  0  0  0  0  0  0  0  0  0  0  0
   47.0101   36.4435   19.6052 H   0  0  0  0  0  0  0  0  0  0  0  0
   48.1962   38.5831   19.1939 H   0  0  0  0  0  0  0  0  0  0  0  0
   46.0628   35.1661   17.7157 H   0  0  0  0  0  0  0  0  0  0  0  0
   48.4364   39.4467   16.8910 H   0  0  0  0  0  0  0  0  0  0  0  0
   37.6162   33.0062   14.2077 H   0  0  0  0  0  0  0  0  0  0  0  0
   36.9332   31.7813   11.8291 H   0  0  0  0  0  0  0  0  0  0  0  0
   41.0146   32.0299   11.6880 H   0  0  0  0  0  0  0  0  0  0  0  0
   42.5177   37.7163   14.5420 H   0  0  0  0  0  0  0  0  0  0  0  0
   41.3370   36.6221   13.7983 H   0  0  0  0  0  0  0  0  0  0  0  0
   42.9243   35.8309   12.3238 H   0  0  0  0  0  0  0  0  0  0  0  0
   44.1280   36.9430   12.9962 H   0  0  0  0  0  0  0  0  0  0  0  0
   43.9456   37.0558   16.4024 H   0  0  0  0  0  0  0  0  0  0  0  0
   43.9459   35.3869   17.0454 H   0  0  0  0  0  0  0  0  0  0  0  0
   41.6087   35.6727   16.1017 H   0  0  0  0  0  0  0  0  0  0  0  0
   44.6343   34.3149   13.4002 H   0  0  0  0  0  0  0  0  0  0  0  0
   43.1378   33.5872   15.4620 H   0  0  0  0  0  0  0  0  0  0  0  0
   49.4230   38.2160   11.5420 H   0  0  0  0  0  0  0  0  0  0  0  0
   47.7872   37.5891   11.9252 H   0  0  0  0  0  0  0  0  0  0  0  0
   48.1369   39.3405   12.0869 H   0  0  0  0  0  0  0  0  0  0  0  0
   47.1022   39.2355   14.5234 H   0  0  0  0  0  0  0  0  0  0  0  0
   42.0427   33.7214   12.9036 H   0  0  0  0  0  0  0  0  0  0  0  0
  1  2  2  0  0  0  0
  1  3  1  0  0  0  0
  2  4  1  0  0  0  0
  3  8  2  0  0  0  0
  4 10  2  0  0  0  0
  5  6  2  0  0  0  0
  5  9  1  0  0  0  0
  6 27  1  0  0  0  0
  7  9  2  0  0  0  0
  7 27  1  0  0  0  0
  8 10  1  0  0  0  0
  8 11  1  0  0  0  0
  9 12  1  0  0  0  0
 10 21  1  0  0  0  0
 11 20  1  0  0  0  0
 11 23  2  0  0  0  0
 12 22  1  0  0  0  0
 12 24  2  0  0  0  0
 13 14  1  0  0  0  0
 13 16  1  0  0  0  0
 14 17  1  0  0  0  0
 15 16  1  0  0  0  0
 15 20  1  0  0  0  0
 16 18  1  0  0  0  0
 17 18  1  0  0  0  0
 17 20  1  0  0  0  0
 18 22  1  0  0  0  0
 19 28  1  0  0  0  0
 21 28  1  0  0  0  0
 25 28  2  0  0  0  0
 26 28  2  0  0  0  0
  1 29  1  0  0  0  0
  2 30  1  0  0  0  0
  3 31  1  0  0  0  0
  4 32  1  0  0  0  0
  5 33  1  0  0  0  0
  6 34  1  0  0  0  0
  7 35  1  0  0  0  0
 13 36  1  0  0  0  0
 13 37  1  0  0  0  0
 14 38  1  0  0  0  0
 14 39  1  0  0  0  0
 15 40  1  0  0  0  0
 15 41  1  0  0  0  0
 16 42  1  0  0  0  0
 17 43  1  0  0  0  0
 18 44  1  0  0  0  0
 19 45  1  0  0  0  0
 19 46  1  0  0  0  0
 19 47  1  0  0  0  0
 21 48  1  0  0  0  0
 22 49  1  0  0  0  0
M  END
> <Chemgauss4 Score>
-6.779664993286

> <Number of Confs>
200

> <og_smiles_field>
CS(=O)(=O)NC1=CC=CC=C1C(=O)N1C[C@H]2CC[C@@H]1[C@@H]2NC(=O)C1=COC=C1

$$$$

  -OEChem-03232314423D

 53 55  0     1  0  0  0  0  0999 V2000
   43.9531   33.9004   16.3854 C   0  0  0  0  0  0  0  0  0  0  0  0
   42.6653   33.2686   16.0593 C   0  0  0  0  0  0  0  0  0  0  0  0
   41.6762   37.6356   11.7813 C   0  0  0  0  0  0  0  0  0  0  0  0
   42.9312   33.8892   13.6763 C   0  0  0  0  0  0  0  0  0  0  0  0
   42.2636   35.1740   11.5716 C   0  0  0  0  0  0  0  0  0  0  0  0
   40.6777   33.6606   14.5092 C   0  0  0  0  0  0  0  0  0  0  0  0
   40.6842   35.8949   13.2512 C   0  0  0  0  0  0  0  0  0  0  0  0
   41.9660   34.0004   12.4951 C   0  0  2  0  0  0  0  0  0  0  0  0
   40.6189   34.3627   13.1525 C   0  0  1  0  0  0  0  0  0  0  0  0
   42.1567   39.1028    9.8386 C   0  0  0  0  0  0  0  0  0  0  0  0
   44.0427   38.1311   11.1866 C   0  0  0  0  0  0  0  0  0  0  0  0
   45.6172   37.6303   16.7725 C   0  0  0  0  0  0  0  0  0  0  0  0
   46.6822   36.5103   14.7747 C   0  0  0  0  0  0  0  0  0  0  0  0
   47.7013   36.3028   17.0303 C   0  0  0  0  0  0  0  0  0  0  0  0
   42.6350   37.9068   10.6499 C   0  0  0  0  0  0  0  0  0  0  0  0
   39.4150   33.9148   12.3240 C   0  0  0  0  0  0  0  0  0  0  0  0
   46.3498   36.3639   16.2764 C   0  0  0  0  0  0  0  0  0  0  0  0
   44.8868   33.3263   17.1961 N   0  0  0  0  0  0  0  0  0  0  0  0
   44.3079   35.0956   15.9067 N   0  0  0  0  0  0  0  0  0  0  0  0
   45.8990   34.1830   17.2518 N   0  0  0  0  0  0  0  0  0  0  0  0
   45.5145   35.2086   16.4794 N   0  0  0  0  0  0  0  0  0  0  0  0
   42.1019   33.5605   14.8258 N   0  0  0  0  0  0  0  0  0  0  0  0
   41.5595   36.3100   12.1613 N   0  0  0  0  0  0  0  0  0  0  0  0
   42.1784   32.5142   16.8990 O   0  0  0  0  0  0  0  0  0  0  0  0
   41.0593   38.5614   12.3110 O   0  0  0  0  0  0  0  0  0  0  0  0
   38.2782   34.1919   12.9796 F   0  0  0  0  0  0  0  0  0  0  0  0
   39.4053   34.5554   11.1456 F   0  0  0  0  0  0  0  0  0  0  0  0
   39.4779   32.5937   12.1009 F   0  0  0  0  0  0  0  0  0  0  0  0
   43.6327   33.0599   13.5331 H   0  0  0  0  0  0  0  0  0  0  0  0
   43.5078   34.8011   13.8594 H   0  0  0  0  0  0  0  0  0  0  0  0
   43.3288   35.4272   11.5238 H   0  0  0  0  0  0  0  0  0  0  0  0
   41.9058   34.9957   10.5528 H   0  0  0  0  0  0  0  0  0  0  0  0
   40.2065   34.2435   15.3119 H   0  0  0  0  0  0  0  0  0  0  0  0
   40.2188   32.6643   14.5025 H   0  0  0  0  0  0  0  0  0  0  0  0
   39.7095   36.3596   13.0725 H   0  0  0  0  0  0  0  0  0  0  0  0
   41.0693   36.2515   14.2099 H   0  0  0  0  0  0  0  0  0  0  0  0
   41.9151   33.0666   11.9252 H   0  0  0  0  0  0  0  0  0  0  0  0
   42.1313   40.0177   10.4414 H   0  0  0  0  0  0  0  0  0  0  0  0
   41.1497   38.9348    9.4408 H   0  0  0  0  0  0  0  0  0  0  0  0
   42.8251   39.2784    8.9888 H   0  0  0  0  0  0  0  0  0  0  0  0
   44.0829   39.0114   11.8378 H   0  0  0  0  0  0  0  0  0  0  0  0
   44.7674   38.2781   10.3776 H   0  0  0  0  0  0  0  0  0  0  0  0
   44.3671   37.2663   11.7753 H   0  0  0  0  0  0  0  0  0  0  0  0
   45.3693   37.5521   17.8373 H   0  0  0  0  0  0  0  0  0  0  0  0
   46.2231   38.5346   16.6515 H   0  0  0  0  0  0  0  0  0  0  0  0
   44.6824   37.7844   16.2210 H   0  0  0  0  0  0  0  0  0  0  0  0
   47.2040   35.6332   14.3776 H   0  0  0  0  0  0  0  0  0  0  0  0
   45.7711   36.6367   14.1785 H   0  0  0  0  0  0  0  0  0  0  0  0
   47.3225   37.3823   14.5977 H   0  0  0  0  0  0  0  0  0  0  0  0
   48.2816   35.4227   16.7276 H   0  0  0  0  0  0  0  0  0  0  0  0
   48.3214   37.1820   16.8202 H   0  0  0  0  0  0  0  0  0  0  0  0
   47.5562   36.2333   18.1146 H   0  0  0  0  0  0  0  0  0  0  0  0
   42.6432   37.0217   10.0080 H   0  0  0  0  0  0  0  0  0  0  0  0
  1  2  1  0  0  0  0
  1 18  1  0  0  0  0
  1 19  2  0  0  0  0
  2 22  1  0  0  0  0
  2 24  2  0  0  0  0
  3 15  1  0  0  0  0
  3 23  1  0  0  0  0
  3 25  2  0  0  0  0
  4  8  1  0  0  0  0
  4 22  1  0  0  0  0
  5  8  1  0  0  0  0
  5 23  1  0  0  0  0
  6  9  1  0  0  0  0
  6 22  1  0  0  0  0
  7  9  1  0  0  0  0
  7 23  1  0  0  0  0
  8  9  1  0  0  0  0
  9 16  1  0  0  0  0
 10 15  1  0  0  0  0
 11 15  1  0  0  0  0
 12 17  1  0  0  0  0
 13 17  1  0  0  0  0
 14 17  1  0  0  0  0
 16 26  1  0  0  0  0
 16 27  1  0  0  0  0
 16 28  1  0  0  0  0
 17 21  1  0  0  0  0
 18 20  2  0  0  0  0
 19 21  1  0  0  0  0
 20 21  1  0  0  0  0
  4 29  1  0  0  0  0
  4 30  1  0  0  0  0
  5 31  1  0  0  0  0
  5 32  1  0  0  0  0
  6 33  1  0  0  0  0
  6 34  1  0  0  0  0
  7 35  1  0  0  0  0
  7 36  1  0  0  0  0
  8 37  1  0  0  0  0
 10 38  1  0  0  0  0
 10 39  1  0  0  0  0
 10 40  1  0  0  0  0
 11 41  1  0  0  0  0
 11 42  1  0  0  0  0
 11 43  1  0  0  0  0
 12 44  1  0  0  0  0
 12 45  1  0  0  0  0
 12 46  1  0  0  0  0
 13 47  1  0  0  0  0
 13 48  1  0  0  0  0
 13 49  1  0  0  0  0
 14 50  1  0  0  0  0
 14 51  1  0  0  0  0
 14 52  1  0  0  0  0
 15 53  1  0  0  0  0
M  END
> <Chemgauss4 Score>
-5.149536609650

> <Number of Confs>
169

> <og_smiles_field>
CC(C)C(=O)N1C[C@H]2CN(C(=O)C3=NN(C(C)(C)C)N=N3)C[C@@]2(C(F)(F)F)C1

$$$$

  -OEChem-03232314423D

 43 46  0     0  0  0  0  0  0999 V2000
   45.4088   34.7222   16.7376 C   0  0  0  0  0  0  0  0  0  0  0  0
   44.1257   34.2959   16.3831 C   0  0  0  0  0  0  0  0  0  0  0  0
   46.3459   37.0786   14.1658 C   0  0  0  0  0  0  0  0  0  0  0  0
   44.1331   35.7204   14.4164 C   0  0  0  0  0  0  0  0  0  0  0  0
   47.4717   37.1070   14.9562 C   0  0  0  0  0  0  0  0  0  0  0  0
   45.4269   36.1650   14.7537 C   0  0  0  0  0  0  0  0  0  0  0  0
   38.4385   33.5762   13.1955 C   0  0  0  0  0  0  0  0  0  0  0  0
   46.0337   35.6567   15.9042 C   0  0  0  0  0  0  0  0  0  0  0  0
   43.4958   34.7860   15.2408 C   0  0  0  0  0  0  0  0  0  0  0  0
   38.4217   34.3655   12.0733 C   0  0  0  0  0  0  0  0  0  0  0  0
   39.6924   33.8221   13.7762 C   0  0  0  0  0  0  0  0  0  0  0  0
   41.3993   33.4103   15.6028 C   0  0  0  0  0  0  0  0  0  0  0  0
   37.2919   32.7076   13.5381 C   0  0  0  0  0  0  0  0  0  0  0  0
   37.2873   34.4636   11.1303 C   0  0  0  0  0  0  0  0  0  0  0  0
   36.3669   33.2506   11.3797 C   0  0  0  0  0  0  0  0  0  0  0  0
   40.0558   35.9777   11.0543 C   0  0  0  0  0  0  0  0  0  0  0  0
   48.2404   36.0028   17.0514 C   0  0  0  0  0  0  0  0  0  0  0  0
   40.4147   34.7067   13.0755 N   0  0  0  0  0  0  0  0  0  0  0  0
   47.2741   36.2459   16.0021 N   0  0  0  0  0  0  0  0  0  0  0  0
   39.6099   35.0223   12.0395 N   0  0  0  0  0  0  0  0  0  0  0  0
   42.1964   34.3349   14.9091 N   0  0  0  0  0  0  0  0  0  0  0  0
   40.1529   33.2296   14.9357 N   0  0  0  0  0  0  0  0  0  0  0  0
   41.7190   32.8333   16.6372 O   0  0  0  0  0  0  0  0  0  0  0  0
   36.1071   33.0704   12.7875 O   0  0  0  0  0  0  0  0  0  0  0  0
   48.6332   34.7002   17.1274 F   0  0  0  0  0  0  0  0  0  0  0  0
   47.7732   36.3135   18.2931 F   0  0  0  0  0  0  0  0  0  0  0  0
   45.8948   34.3372   17.6279 H   0  0  0  0  0  0  0  0  0  0  0  0
   43.6221   33.5698   17.0181 H   0  0  0  0  0  0  0  0  0  0  0  0
   46.2002   37.6542   13.2619 H   0  0  0  0  0  0  0  0  0  0  0  0
   43.6394   36.1024   13.5265 H   0  0  0  0  0  0  0  0  0  0  0  0
   48.3924   37.6664   14.8594 H   0  0  0  0  0  0  0  0  0  0  0  0
   37.5245   31.6587   13.3239 H   0  0  0  0  0  0  0  0  0  0  0  0
   37.0414   32.7921   14.6000 H   0  0  0  0  0  0  0  0  0  0  0  0
   36.7361   35.3880   11.3385 H   0  0  0  0  0  0  0  0  0  0  0  0
   37.6159   34.4820   10.0868 H   0  0  0  0  0  0  0  0  0  0  0  0
   35.4062   33.4060   10.8785 H   0  0  0  0  0  0  0  0  0  0  0  0
   36.8057   32.3275   10.9804 H   0  0  0  0  0  0  0  0  0  0  0  0
   39.7493   36.9730   11.3867 H   0  0  0  0  0  0  0  0  0  0  0  0
   41.1441   35.9240   10.9615 H   0  0  0  0  0  0  0  0  0  0  0  0
   39.6018   35.7394   10.0884 H   0  0  0  0  0  0  0  0  0  0  0  0
   49.1347   36.6082   16.8733 H   0  0  0  0  0  0  0  0  0  0  0  0
   41.7897   34.7287   14.0644 H   0  0  0  0  0  0  0  0  0  0  0  0
   39.5250   32.5582   15.4047 H   0  0  0  0  0  0  0  0  0  0  0  0
  1  2  1  0  0  0  0
  1  8  2  0  0  0  0
  2  9  2  0  0  0  0
  3  5  2  0  0  0  0
  3  6  1  0  0  0  0
  4  6  2  0  0  0  0
  4  9  1  0  0  0  0
  5 19  1  0  0  0  0
  6  8  1  0  0  0  0
  7 10  2  0  0  0  0
  7 11  1  0  0  0  0
  7 13  1  0  0  0  0
  8 19  1  0  0  0  0
  9 21  1  0  0  0  0
 10 14  1  0  0  0  0
 10 20  1  0  0  0  0
 11 18  2  0  0  0  0
 11 22  1  0  0  0  0
 12 21  1  0  0  0  0
 12 22  1  0  0  0  0
 12 23  2  0  0  0  0
 13 24  1  0  0  0  0
 14 15  1  0  0  0  0
 15 24  1  0  0  0  0
 16 20  1  0  0  0  0
 17 19  1  0  0  0  0
 17 25  1  0  0  0  0
 17 26  1  0  0  0  0
 18 20  1  0  0  0  0
  1 27  1  0  0  0  0
  2 28  1  0  0  0  0
  3 29  1  0  0  0  0
  4 30  1  0  0  0  0
  5 31  1  0  0  0  0
 13 32  1  0  0  0  0
 13 33  1  0  0  0  0
 14 34  1  0  0  0  0
 14 35  1  0  0  0  0
 15 36  1  0  0  0  0
 15 37  1  0  0  0  0
 16 38  1  0  0  0  0
 16 39  1  0  0  0  0
 16 40  1  0  0  0  0
 17 41  1  0  0  0  0
 21 42  1  0  0  0  0
 22 43  1  0  0  0  0
M  END
> <Chemgauss4 Score>
-6.077418804169

> <Number of Confs>
26

> <og_smiles_field>
CN1N=C(NC(=O)NC2=CC=C3C(=C2)C=CN3C(F)F)C2=C1CCOC2

$$$$

  -OEChem-03232314423D

 55 58  0     1  0  0  0  0  0999 V2000
   41.1731   33.8363   15.5587 C   0  0  0  0  0  0  0  0  0  0  0  0
   41.0503   33.7728   14.1865 C   0  0  0  0  0  0  0  0  0  0  0  0
   42.3898   35.5044   14.3179 C   0  0  0  0  0  0  0  0  0  0  0  0
   49.3324   39.4170   15.3983 C   0  0  0  0  0  0  0  0  0  0  0  0
   40.2582   32.7914   13.5002 C   0  0  0  0  0  0  0  0  0  0  0  0
   48.0493   39.8282   16.0809 C   0  0  0  0  0  0  0  0  0  0  0  0
   49.3844   38.0086   14.8554 C   0  0  0  0  0  0  0  0  0  0  0  0
   47.6382   38.7927   17.1222 C   0  0  0  0  0  0  0  0  0  0  0  0
   48.9501   37.0061   15.9200 C   0  0  0  0  0  0  0  0  0  0  0  0
   43.7313   36.8526   11.5155 C   0  0  0  0  0  0  0  0  0  0  0  0
   42.8295   37.3910   12.6261 C   0  0  0  0  0  0  0  0  0  0  0  0
   46.4197   35.3192   16.8144 C   0  0  0  0  0  0  0  0  0  0  0  0
   47.1777   36.3485   17.6178 C   0  0  0  0  0  0  0  0  0  0  0  0
   44.7447   35.9520   12.2068 C   0  0  0  0  0  0  0  0  0  0  0  0
   43.2720   36.6769   13.9106 C   0  0  2  0  0  0  0  0  0  0  0  0
   45.7031   36.1937   15.8024 C   0  0  2  0  0  0  0  0  0  0  0  0
   47.5917   37.3674   16.5522 C   0  0  0  0  0  0  0  0  0  0  0  0
   39.7362   32.3733    9.8757 C   0  0  0  0  0  0  0  0  0  0  0  0
   45.3643   35.4719   14.5128 C   0  0  0  0  0  0  0  0  0  0  0  0
   39.5498   32.0267   11.3374 C   0  0  0  0  0  0  0  0  0  0  0  0
   41.7469   34.7288   13.4733 N   0  0  0  0  0  0  0  0  0  0  0  0
   44.6779   36.3690   13.6019 N   0  0  1  0  0  0  0  0  0  0  0  0
   50.2448   40.2184   15.2026 O   0  0  0  0  0  0  0  0  0  0  0  0
   39.5941   31.8896   14.0525 O   0  0  0  0  0  0  0  0  0  0  0  0
   46.5809   37.2962   15.5241 O   0  0  0  0  0  0  0  0  0  0  0  0
   40.3028   32.9472   12.1346 O   0  0  0  0  0  0  0  0  0  0  0  0
   42.2018   35.1409   15.9844 S   0  0  0  0  0  0  0  0  0  0  0  0
   40.7258   33.2019   16.3110 H   0  0  0  0  0  0  0  0  0  0  0  0
   48.1967   40.7997   16.5646 H   0  0  0  0  0  0  0  0  0  0  0  0
   47.2768   39.9460   15.3136 H   0  0  0  0  0  0  0  0  0  0  0  0
   48.7352   37.9572   13.9749 H   0  0  0  0  0  0  0  0  0  0  0  0
   50.4077   37.7866   14.5345 H   0  0  0  0  0  0  0  0  0  0  0  0
   48.3417   38.8263   17.9639 H   0  0  0  0  0  0  0  0  0  0  0  0
   46.6511   39.0756   17.5085 H   0  0  0  0  0  0  0  0  0  0  0  0
   48.9050   36.0158   15.4517 H   0  0  0  0  0  0  0  0  0  0  0  0
   49.7164   36.9623   16.7047 H   0  0  0  0  0  0  0  0  0  0  0  0
   43.1284   36.2688   10.7986 H   0  0  0  0  0  0  0  0  0  0  0  0
   44.2140   37.6638   10.9476 H   0  0  0  0  0  0  0  0  0  0  0  0
   42.9960   38.4733   12.7293 H   0  0  0  0  0  0  0  0  0  0  0  0
   41.7711   37.2458   12.3679 H   0  0  0  0  0  0  0  0  0  0  0  0
   47.1226   34.6358   16.3236 H   0  0  0  0  0  0  0  0  0  0  0  0
   45.7319   34.7210   17.4189 H   0  0  0  0  0  0  0  0  0  0  0  0
   46.4958   36.8028   18.3476 H   0  0  0  0  0  0  0  0  0  0  0  0
   48.0209   35.9247   18.1716 H   0  0  0  0  0  0  0  0  0  0  0  0
   44.4871   34.8925   12.0768 H   0  0  0  0  0  0  0  0  0  0  0  0
   45.7456   36.1215   11.7803 H   0  0  0  0  0  0  0  0  0  0  0  0
   43.2309   37.4458   14.7344 H   0  0  0  0  0  0  0  0  0  0  0  0
   44.7901   36.6115   16.2433 H   0  0  0  0  0  0  0  0  0  0  0  0
   39.3820   33.3867    9.6667 H   0  0  0  0  0  0  0  0  0  0  0  0
   40.7918   32.3025    9.5936 H   0  0  0  0  0  0  0  0  0  0  0  0
   39.1889   31.6697    9.2395 H   0  0  0  0  0  0  0  0  0  0  0  0
   46.2999   35.1270   14.0678 H   0  0  0  0  0  0  0  0  0  0  0  0
   44.7214   34.6254   14.7632 H   0  0  0  0  0  0  0  0  0  0  0  0
   39.9059   31.0121   11.5396 H   0  0  0  0  0  0  0  0  0  0  0  0
   38.4947   32.0987   11.6177 H   0  0  0  0  0  0  0  0  0  0  0  0
  1  2  2  0  0  0  0
  1 27  1  0  0  0  0
  2  5  1  0  0  0  0
  2 21  1  0  0  0  0
  3 15  1  0  0  0  0
  3 21  2  0  0  0  0
  3 27  1  0  0  0  0
  4  6  1  0  0  0  0
  4  7  1  0  0  0  0
  4 23  2  0  0  0  0
  5 24  2  0  0  0  0
  5 26  1  0  0  0  0
  6  8  1  0  0  0  0
  7  9  1  0  0  0  0
  8 17  1  0  0  0  0
  9 17  1  0  0  0  0
 10 11  1  0  0  0  0
 10 14  1  0  0  0  0
 11 15  1  0  0  0  0
 12 13  1  0  0  0  0
 12 16  1  0  0  0  0
 13 17  1  0  0  0  0
 14 22  1  0  0  0  0
 15 22  1  0  0  0  0
 16 19  1  0  0  0  0
 16 25  1  0  0  0  0
 17 25  1  0  0  0  0
 18 20  1  0  0  0  0
 19 22  1  0  0  0  0
 20 26  1  0  0  0  0
  1 28  1  0  0  0  0
  6 29  1  0  0  0  0
  6 30  1  0  0  0  0
  7 31  1  0  0  0  0
  7 32  1  0  0  0  0
  8 33  1  0  0  0  0
  8 34  1  0  0  0  0
  9 35  1  0  0  0  0
  9 36  1  0  0  0  0
 10 37  1  0  0  0  0
 10 38  1  0  0  0  0
 11 39  1  0  0  0  0
 11 40  1  0  0  0  0
 12 41  1  0  0  0  0
 12 42  1  0  0  0  0
 13 43  1  0  0  0  0
 13 44  1  0  0  0  0
 14 45  1  0  0  0  0
 14 46  1  0  0  0  0
 15 47  1  0  0  0  0
 16 48  1  0  0  0  0
 18 49  1  0  0  0  0
 18 50  1  0  0  0  0
 18 51  1  0  0  0  0
 19 52  1  0  0  0  0
 19 53  1  0  0  0  0
 20 54  1  0  0  0  0
 20 55  1  0  0  0  0
M  END
> <Chemgauss4 Score>
-4.433648109436

> <Number of Confs>
200

> <og_smiles_field>
CCOC(=O)C1=CSC(C2CCCN2CC2CCC3(CCC(=O)CC3)O2)=N1

$$$$

  -OEChem-03232314423D

 39 40  0     1  0  0  0  0  0999 V2000
   45.8889   34.7702   16.9301 C   0  0  0  0  0  0  0  0  0  0  0  0
   44.7627   34.7342   16.0861 C   0  0  0  0  0  0  0  0  0  0  0  0
   46.8662   35.3690   16.1732 C   0  0  0  0  0  0  0  0  0  0  0  0
   39.3659   31.9554   11.6830 C   0  0  0  0  0  0  0  0  0  0  0  0
   41.2981   33.5493   15.2364 C   0  0  0  0  0  0  0  0  0  0  0  0
   38.5481   32.7183   12.7077 C   0  0  0  0  0  0  0  0  0  0  0  0
   39.2265   32.9345   14.0471 C   0  0  0  0  0  0  0  0  0  0  0  0
   41.4313   32.4215   13.0461 C   0  0  0  0  0  0  0  0  0  0  0  0
   40.6565   33.4451   13.8770 C   0  0  2  0  0  0  0  0  0  0  0  0
   40.7133   34.8409   13.2451 C   0  0  0  0  0  0  0  0  0  0  0  0
   46.9017   36.2749   13.8217 C   0  0  0  0  0  0  0  0  0  0  0  0
   41.5909   31.3382   10.8276 C   0  0  0  0  0  0  0  0  0  0  0  0
   43.4024   34.1818   16.4002 C   0  0  0  0  0  0  0  0  0  0  0  0
   45.0011   35.2678   14.8851 N   0  0  0  0  0  0  0  0  0  0  0  0
   46.2884   35.6448   14.9689 N   0  0  0  0  0  0  0  0  0  0  0  0
   40.7512   31.9896   11.8243 N   0  0  0  0  0  0  0  0  0  0  0  0
   42.6021   34.0056   15.2096 N   0  0  0  0  0  0  0  0  0  0  0  0
   38.7813   31.4137   10.7403 O   0  0  0  0  0  0  0  0  0  0  0  0
   40.6557   33.2399   16.2330 O   0  0  0  0  0  0  0  0  0  0  0  0
   48.4834   35.7581   16.4949 Cl  0  0  0  0  0  0  0  0  0  0  0  0
   45.9795   34.4119   17.9454 H   0  0  0  0  0  0  0  0  0  0  0  0
   38.2911   33.6932   12.2774 H   0  0  0  0  0  0  0  0  0  0  0  0
   37.6096   32.1674   12.8419 H   0  0  0  0  0  0  0  0  0  0  0  0
   38.6428   33.6607   14.6309 H   0  0  0  0  0  0  0  0  0  0  0  0
   39.2108   31.9930   14.6129 H   0  0  0  0  0  0  0  0  0  0  0  0
   42.3929   32.8414   12.7259 H   0  0  0  0  0  0  0  0  0  0  0  0
   41.6456   31.5291   13.6465 H   0  0  0  0  0  0  0  0  0  0  0  0
   40.2589   34.8116   12.2583 H   0  0  0  0  0  0  0  0  0  0  0  0
   41.7491   35.1575   13.1566 H   0  0  0  0  0  0  0  0  0  0  0  0
   40.1722   35.5453   13.8714 H   0  0  0  0  0  0  0  0  0  0  0  0
   47.3391   35.4898   13.1993 H   0  0  0  0  0  0  0  0  0  0  0  0
   46.1432   36.8287   13.2615 H   0  0  0  0  0  0  0  0  0  0  0  0
   47.6746   36.9701   14.1614 H   0  0  0  0  0  0  0  0  0  0  0  0
   41.8366   32.0544   10.0297 H   0  0  0  0  0  0  0  0  0  0  0  0
   42.5185   30.9867   11.3031 H   0  0  0  0  0  0  0  0  0  0  0  0
   41.0518   30.4812   10.3976 H   0  0  0  0  0  0  0  0  0  0  0  0
   43.4861   33.2092   16.8973 H   0  0  0  0  0  0  0  0  0  0  0  0
   42.8548   34.8466   17.0764 H   0  0  0  0  0  0  0  0  0  0  0  0
   43.0181   34.2279   14.3102 H   0  0  0  0  0  0  0  0  0  0  0  0
  1  2  1  0  0  0  0
  1  3  2  0  0  0  0
  2 13  1  0  0  0  0
  2 14  2  0  0  0  0
  3 15  1  0  0  0  0
  3 20  1  0  0  0  0
  4  6  1  0  0  0  0
  4 16  1  0  0  0  0
  4 18  2  0  0  0  0
  5  9  1  0  0  0  0
  5 17  1  0  0  0  0
  5 19  2  0  0  0  0
  6  7  1  0  0  0  0
  7  9  1  0  0  0  0
  8  9  1  0  0  0  0
  8 16  1  0  0  0  0
  9 10  1  0  0  0  0
 11 15  1  0  0  0  0
 12 16  1  0  0  0  0
 13 17  1  0  0  0  0
 14 15  1  0  0  0  0
  1 21  1  0  0  0  0
  6 22  1  0  0  0  0
  6 23  1  0  0  0  0
  7 24  1  0  0  0  0
  7 25  1  0  0  0  0
  8 26  1  0  0  0  0
  8 27  1  0  0  0  0
 10 28  1  0  0  0  0
 10 29  1  0  0  0  0
 10 30  1  0  0  0  0
 11 31  1  0  0  0  0
 11 32  1  0  0  0  0
 11 33  1  0  0  0  0
 12 34  1  0  0  0  0
 12 35  1  0  0  0  0
 12 36  1  0  0  0  0
 13 37  1  0  0  0  0
 13 38  1  0  0  0  0
 17 39  1  0  0  0  0
M  END
> <Chemgauss4 Score>
-6.707844257355

> <Number of Confs>
200

> <og_smiles_field>
CN1CC(C)(C(=O)NCC2=NN(C)C(Cl)=C2)CCC1=O

$$$$

  -OEChem-03232314423D

 54 56  0     1  0  0  0  0  0999 V2000
   51.3797   39.2352   15.3972 C   0  0  0  0  0  0  0  0  0  0  0  0
   51.0614   38.0611   14.7148 C   0  0  0  0  0  0  0  0  0  0  0  0
   50.5971   39.6496   16.4750 C   0  0  0  0  0  0  0  0  0  0  0  0
   49.9604   37.3013   15.1100 C   0  0  0  0  0  0  0  0  0  0  0  0
   49.4961   38.8898   16.8702 C   0  0  0  0  0  0  0  0  0  0  0  0
   41.7466   33.6502   15.9334 C   0  0  0  0  0  0  0  0  0  0  0  0
   42.1202   34.7733   13.9196 C   0  0  0  0  0  0  0  0  0  0  0  0
   49.1777   37.7157   16.1877 C   0  0  0  0  0  0  0  0  0  0  0  0
   42.5727   34.4648   15.1862 C   0  0  0  0  0  0  0  0  0  0  0  0
   40.2369   33.5407   14.2375 C   0  0  0  0  0  0  0  0  0  0  0  0
   44.7270   35.7754   15.0376 C   0  0  0  0  0  0  0  0  0  0  0  0
   48.8969   35.5933   18.4688 C   0  0  0  0  0  0  0  0  0  0  0  0
   48.1424   36.7815   19.0619 C   0  0  0  0  0  0  0  0  0  0  0  0
   48.3829   35.4487   17.0371 C   0  0  0  0  0  0  0  0  0  0  0  0
   47.2682   37.3238   17.9317 C   0  0  0  0  0  0  0  0  0  0  0  0
   47.9644   36.8793   16.6235 C   0  0  0  0  0  0  0  0  0  0  0  0
   36.4119   34.0510   12.7160 C   0  0  0  0  0  0  0  0  0  0  0  0
   46.4396   38.2482   15.1475 C   0  0  0  0  0  0  0  0  0  0  0  0
   37.7753   34.4063   13.2655 C   0  0  0  0  0  0  0  0  0  0  0  0
   46.9394   36.8527   15.4773 C   0  0  2  0  0  0  0  0  0  0  0  0
   40.5675   33.1683   15.4887 N   0  0  0  0  0  0  0  0  0  0  0  0
   40.9529   34.3268   13.4111 N   0  0  0  0  0  0  0  0  0  0  0  0
   43.8043   34.9491   15.6853 N   0  0  0  0  0  0  0  0  0  0  0  0
   45.7930   36.0077   15.8817 N   0  0  0  0  0  0  0  0  0  0  0  0
   44.6286   36.2342   13.9021 O   0  0  0  0  0  0  0  0  0  0  0  0
   38.9807   32.2603   12.3621 O   0  0  0  0  0  0  0  0  0  0  0  0
   38.0200   32.2377   14.6907 O   0  0  0  0  0  0  0  0  0  0  0  0
   38.7345   32.9473   13.6292 S   0  0  0  0  0  0  0  0  0  0  0  0
   52.2379   39.8259   15.0902 H   0  0  0  0  0  0  0  0  0  0  0  0
   51.6714   37.7377   13.8763 H   0  0  0  0  0  0  0  0  0  0  0  0
   50.8453   40.5630   17.0072 H   0  0  0  0  0  0  0  0  0  0  0  0
   49.7198   36.3880   14.5723 H   0  0  0  0  0  0  0  0  0  0  0  0
   48.8920   39.2205   17.7109 H   0  0  0  0  0  0  0  0  0  0  0  0
   42.0103   33.3480   16.9422 H   0  0  0  0  0  0  0  0  0  0  0  0
   42.6952   35.4066   13.2510 H   0  0  0  0  0  0  0  0  0  0  0  0
   49.9783   35.7486   18.4881 H   0  0  0  0  0  0  0  0  0  0  0  0
   48.6823   34.6891   19.0461 H   0  0  0  0  0  0  0  0  0  0  0  0
   47.5223   36.4492   19.8996 H   0  0  0  0  0  0  0  0  0  0  0  0
   48.8239   37.5480   19.4390 H   0  0  0  0  0  0  0  0  0  0  0  0
   49.1964   35.0872   16.4020 H   0  0  0  0  0  0  0  0  0  0  0  0
   47.5641   34.7324   16.9684 H   0  0  0  0  0  0  0  0  0  0  0  0
   46.2387   36.9641   18.0053 H   0  0  0  0  0  0  0  0  0  0  0  0
   47.2377   38.4173   17.9992 H   0  0  0  0  0  0  0  0  0  0  0  0
   36.5103   33.4837   11.7858 H   0  0  0  0  0  0  0  0  0  0  0  0
   35.8471   33.4433   13.4306 H   0  0  0  0  0  0  0  0  0  0  0  0
   35.8252   34.9517   12.5087 H   0  0  0  0  0  0  0  0  0  0  0  0
   45.9744   38.7063   16.0272 H   0  0  0  0  0  0  0  0  0  0  0  0
   45.6938   38.2189   14.3463 H   0  0  0  0  0  0  0  0  0  0  0  0
   47.2573   38.9044   14.8286 H   0  0  0  0  0  0  0  0  0  0  0  0
   37.6864   34.9738   14.1961 H   0  0  0  0  0  0  0  0  0  0  0  0
   38.3466   34.9963   12.5438 H   0  0  0  0  0  0  0  0  0  0  0  0
   47.4011   36.4058   14.5935 H   0  0  0  0  0  0  0  0  0  0  0  0
   44.0426   34.6588   16.6304 H   0  0  0  0  0  0  0  0  0  0  0  0
   45.7915   35.5943   16.7910 H   0  0  0  0  0  0  0  0  0  0  0  0
  1  2  2  0  0  0  0
  1  3  1  0  0  0  0
  2  4  1  0  0  0  0
  3  5  2  0  0  0  0
  4  8  2  0  0  0  0
  5  8  1  0  0  0  0
  6  9  2  0  0  0  0
  6 21  1  0  0  0  0
  7  9  1  0  0  0  0
  7 22  2  0  0  0  0
  8 16  1  0  0  0  0
  9 23  1  0  0  0  0
 10 21  2  0  0  0  0
 10 22  1  0  0  0  0
 10 28  1  0  0  0  0
 11 23  1  0  0  0  0
 11 24  1  0  0  0  0
 11 25  2  0  0  0  0
 12 13  1  0  0  0  0
 12 14  1  0  0  0  0
 13 15  1  0  0  0  0
 14 16  1  0  0  0  0
 15 16  1  0  0  0  0
 16 20  1  0  0  0  0
 17 19  1  0  0  0  0
 18 20  1  0  0  0  0
 19 28  1  0  0  0  0
 20 24  1  0  0  0  0
 26 28  2  0  0  0  0
 27 28  2  0  0  0  0
  1 29  1  0  0  0  0
  2 30  1  0  0  0  0
  3 31  1  0  0  0  0
  4 32  1  0  0  0  0
  5 33  1  0  0  0  0
  6 34  1  0  0  0  0
  7 35  1  0  0  0  0
 12 36  1  0  0  0  0
 12 37  1  0  0  0  0
 13 38  1  0  0  0  0
 13 39  1  0  0  0  0
 14 40  1  0  0  0  0
 14 41  1  0  0  0  0
 15 42  1  0  0  0  0
 15 43  1  0  0  0  0
 17 44  1  0  0  0  0
 17 45  1  0  0  0  0
 17 46  1  0  0  0  0
 18 47  1  0  0  0  0
 18 48  1  0  0  0  0
 18 49  1  0  0  0  0
 19 50  1  0  0  0  0
 19 51  1  0  0  0  0
 20 52  1  0  0  0  0
 23 53  1  0  0  0  0
 24 54  1  0  0  0  0
M  END
> <Chemgauss4 Score>
-5.899528980255

> <Number of Confs>
124

> <og_smiles_field>
CCS(=O)(=O)C1=NC=C(NC(=O)NC(C)C2(C3=CC=CC=C3)CCCC2)C=N1

$$$$

  -OEChem-03232314423D

 52 55  0     1  0  0  0  0  0999 V2000
   48.1221   37.6674   17.7023 C   0  0  0  0  0  0  0  0  0  0  0  0
   49.1973   38.5078   17.3955 C   0  0  0  0  0  0  0  0  0  0  0  0
   47.0121   38.2526   15.6240 C   0  0  0  0  0  0  0  0  0  0  0  0
   41.9399   33.1440   16.2923 C   0  0  0  0  0  0  0  0  0  0  0  0
   43.3413   35.6827   13.5218 C   0  0  0  0  0  0  0  0  0  0  0  0
   42.6780   34.0502   15.5084 C   0  0  0  0  0  0  0  0  0  0  0  0
   48.0798   39.0868   15.3396 C   0  0  0  0  0  0  0  0  0  0  0  0
   47.0372   37.5406   16.8225 C   0  0  0  0  0  0  0  0  0  0  0  0
   49.1715   39.2212   16.2070 C   0  0  0  0  0  0  0  0  0  0  0  0
   41.8634   34.2985   14.4176 C   0  0  0  0  0  0  0  0  0  0  0  0
   43.9054   34.7035   15.5427 C   0  0  0  0  0  0  0  0  0  0  0  0
   39.9452   33.0001   12.3581 C   0  0  0  0  0  0  0  0  0  0  0  0
   48.3063   39.9234   14.1217 C   0  0  0  0  0  0  0  0  0  0  0  0
   49.5007   40.7896   14.5704 C   0  0  0  0  0  0  0  0  0  0  0  0
   46.9826   34.3560   17.5883 C   0  0  0  0  0  0  0  0  0  0  0  0
   51.1846   40.6779   16.4748 C   0  0  0  0  0  0  0  0  0  0  0  0
   40.8922   31.1572   11.2153 C   0  0  0  0  0  0  0  0  0  0  0  0
   45.9048   36.6336   17.1708 C   0  0  0  0  0  0  0  0  0  0  0  0
   39.5878   33.4801   13.7416 C   0  0  0  0  0  0  0  0  0  0  0  0
   46.0792   35.1802   16.6709 C   0  0  2  0  0  0  0  0  0  0  0  0
   40.7556   32.8382   15.7509 N   0  0  0  0  0  0  0  0  0  0  0  0
   42.1279   35.1070   13.3791 N   0  0  0  0  0  0  0  0  0  0  0  0
   44.2378   35.5348   14.5262 N   0  0  0  0  0  0  0  0  0  0  0  0
   40.7373   33.5554   14.6120 N   0  0  0  0  0  0  0  0  0  0  0  0
   50.1207   40.0956   15.6970 N   0  0  1  0  0  0  0  0  0  0  0  0
   44.7754   34.5153   16.5888 N   0  0  0  0  0  0  0  0  0  0  0  0
   39.7688   33.6274   11.3226 O   0  0  0  0  0  0  0  0  0  0  0  0
   40.4966   31.7536   12.4548 O   0  0  0  0  0  0  0  0  0  0  0  0
   48.1371   37.1073   18.6343 H   0  0  0  0  0  0  0  0  0  0  0  0
   50.0300   38.5882   18.0866 H   0  0  0  0  0  0  0  0  0  0  0  0
   46.1826   38.1568   14.9310 H   0  0  0  0  0  0  0  0  0  0  0  0
   42.2105   32.6910   17.2356 H   0  0  0  0  0  0  0  0  0  0  0  0
   43.6392   36.3550   12.7244 H   0  0  0  0  0  0  0  0  0  0  0  0
   48.5760   39.2885   13.2716 H   0  0  0  0  0  0  0  0  0  0  0  0
   47.4361   40.5391   13.8773 H   0  0  0  0  0  0  0  0  0  0  0  0
   50.2103   40.9446   13.7506 H   0  0  0  0  0  0  0  0  0  0  0  0
   49.1428   41.7747   14.8973 H   0  0  0  0  0  0  0  0  0  0  0  0
   46.5810   34.3256   18.6077 H   0  0  0  0  0  0  0  0  0  0  0  0
   47.9951   34.7724   17.6375 H   0  0  0  0  0  0  0  0  0  0  0  0
   47.0593   33.3205   17.2413 H   0  0  0  0  0  0  0  0  0  0  0  0
   51.7934   41.3315   15.8329 H   0  0  0  0  0  0  0  0  0  0  0  0
   50.7559   41.2687   17.2978 H   0  0  0  0  0  0  0  0  0  0  0  0
   51.8166   39.8781   16.8880 H   0  0  0  0  0  0  0  0  0  0  0  0
   41.3178   30.1688   11.4051 H   0  0  0  0  0  0  0  0  0  0  0  0
   41.6302   31.7949   10.7222 H   0  0  0  0  0  0  0  0  0  0  0  0
   40.0140   31.0560   10.5733 H   0  0  0  0  0  0  0  0  0  0  0  0
   45.7340   36.6258   18.2620 H   0  0  0  0  0  0  0  0  0  0  0  0
   44.9773   37.0553   16.7446 H   0  0  0  0  0  0  0  0  0  0  0  0
   38.8675   32.7927   14.1978 H   0  0  0  0  0  0  0  0  0  0  0  0
   39.1451   34.4800   13.6835 H   0  0  0  0  0  0  0  0  0  0  0  0
   46.5164   35.1843   15.6657 H   0  0  0  0  0  0  0  0  0  0  0  0
   44.5306   33.8987   17.3420 H   0  0  0  0  0  0  0  0  0  0  0  0
  1  2  1  0  0  0  0
  1  8  2  0  0  0  0
  2  9  2  0  0  0  0
  3  7  2  0  0  0  0
  3  8  1  0  0  0  0
  4  6  1  0  0  0  0
  4 21  2  0  0  0  0
  5 22  1  0  0  0  0
  5 23  2  0  0  0  0
  6 10  1  0  0  0  0
  6 11  2  0  0  0  0
  7  9  1  0  0  0  0
  7 13  1  0  0  0  0
  8 18  1  0  0  0  0
  9 25  1  0  0  0  0
 10 22  2  0  0  0  0
 10 24  1  0  0  0  0
 11 23  1  0  0  0  0
 11 26  1  0  0  0  0
 12 19  1  0  0  0  0
 12 27  2  0  0  0  0
 12 28  1  0  0  0  0
 13 14  1  0  0  0  0
 14 25  1  0  0  0  0
 15 20  1  0  0  0  0
 16 25  1  0  0  0  0
 17 28  1  0  0  0  0
 18 20  1  0  0  0  0
 19 24  1  0  0  0  0
 20 26  1  0  0  0  0
 21 24  1  0  0  0  0
  1 29  1  0  0  0  0
  2 30  1  0  0  0  0
  3 31  1  0  0  0  0
  4 32  1  0  0  0  0
  5 33  1  0  0  0  0
 13 34  1  0  0  0  0
 13 35  1  0  0  0  0
 14 36  1  0  0  0  0
 14 37  1  0  0  0  0
 15 38  1  0  0  0  0
 15 39  1  0  0  0  0
 15 40  1  0  0  0  0
 16 41  1  0  0  0  0
 16 42  1  0  0  0  0
 16 43  1  0  0  0  0
 17 44  1  0  0  0  0
 17 45  1  0  0  0  0
 17 46  1  0  0  0  0
 18 47  1  0  0  0  0
 18 48  1  0  0  0  0
 19 49  1  0  0  0  0
 19 50  1  0  0  0  0
 20 51  1  0  0  0  0
 26 52  1  0  0  0  0
M  END
> <Chemgauss4 Score>
-7.562161922455

> <Number of Confs>
200

> <og_smiles_field>
COC(=O)CN1N=CC2=C(N[C@H](C)CC3=CC=C4C(=C3)CCN4C)N=CN=C21

$$$$

  -OEChem-03232314423D

 30 30  0     1  0  0  0  0  0999 V2000
   48.8341   37.4941   18.3391 C   0  0  0  0  0  0  0  0  0  0  0  0
   47.7673   37.7170   17.5596 C   0  0  0  0  0  0  0  0  0  0  0  0
   44.0021   35.0906   14.7734 C   0  0  0  0  0  0  0  0  0  0  0  0
   43.4374   34.0536   15.7083 C   0  0  1  0  0  0  0  0  0  0  0  0
   44.3961   35.0940   16.2271 C   0  0  1  0  0  0  0  0  0  0  0  0
   41.0937   33.4431   15.0892 C   0  0  0  0  0  0  0  0  0  0  0  0
   48.0881   35.3026   16.3661 C   0  0  0  0  0  0  0  0  0  0  0  0
   46.5836   36.7919   17.5022 C   0  0  0  0  0  0  0  0  0  0  0  0
   42.0005   34.1007   16.0986 C   0  0  0  0  0  0  0  0  0  0  0  0
   45.7762   34.7040   16.6295 C   0  0  0  0  0  0  0  0  0  0  0  0
   46.7004   35.7872   16.4336 N   0  0  2  0  0  0  0  0  0  0  0  0
   47.6995   39.1904   16.4036 Br  0  0  0  0  0  0  0  0  0  0  0  0
   49.6858   38.1666   18.3473 H   0  0  0  0  0  0  0  0  0  0  0  0
   48.8804   36.6295   18.9930 H   0  0  0  0  0  0  0  0  0  0  0  0
   44.7297   34.7629   14.0407 H   0  0  0  0  0  0  0  0  0  0  0  0
   43.3518   35.8855   14.4281 H   0  0  0  0  0  0  0  0  0  0  0  0
   43.7914   33.0356   15.5973 H   0  0  0  0  0  0  0  0  0  0  0  0
   44.0048   35.8901   16.8495 H   0  0  0  0  0  0  0  0  0  0  0  0
   41.2134   33.8993   14.0995 H   0  0  0  0  0  0  0  0  0  0  0  0
   40.0467   33.5551   15.3903 H   0  0  0  0  0  0  0  0  0  0  0  0
   41.3321   32.3777   15.0033 H   0  0  0  0  0  0  0  0  0  0  0  0
   48.1762   34.5514   15.5673 H   0  0  0  0  0  0  0  0  0  0  0  0
   48.7609   36.1460   16.1518 H   0  0  0  0  0  0  0  0  0  0  0  0
   48.3648   34.8481   17.3288 H   0  0  0  0  0  0  0  0  0  0  0  0
   46.4526   36.2877   18.4671 H   0  0  0  0  0  0  0  0  0  0  0  0
   45.6645   37.3645   17.3292 H   0  0  0  0  0  0  0  0  0  0  0  0
   41.8398   33.6046   17.0739 H   0  0  0  0  0  0  0  0  0  0  0  0
   41.6612   35.1451   16.2304 H   0  0  0  0  0  0  0  0  0  0  0  0
   45.7753   34.4221   17.6932 H   0  0  0  0  0  0  0  0  0  0  0  0
   46.0988   33.8440   16.0236 H   0  0  0  0  0  0  0  0  0  0  0  0
  1  2  2  0  0  0  0
  2  8  1  0  0  0  0
  2 12  1  0  0  0  0
  3  4  1  0  0  0  0
  3  5  1  0  0  0  0
  4  5  1  0  0  0  0
  4  9  1  0  0  0  0
  5 10  1  0  0  0  0
  6  9  1  0  0  0  0
  7 11  1  0  0  0  0
  8 11  1  0  0  0  0
 10 11  1  0  0  0  0
  1 13  1  0  0  0  0
  1 14  1  0  0  0  0
  3 15  1  0  0  0  0
  3 16  1  0  0  0  0
  4 17  1  0  0  0  0
  5 18  1  0  0  0  0
  6 19  1  0  0  0  0
  6 20  1  0  0  0  0
  6 21  1  0  0  0  0
  7 22  1  0  0  0  0
  7 23  1  0  0  0  0
  7 24  1  0  0  0  0
  8 25  1  0  0  0  0
  8 26  1  0  0  0  0
  9 27  1  0  0  0  0
  9 28  1  0  0  0  0
 10 29  1  0  0  0  0
 10 30  1  0  0  0  0
M  END
> <Chemgauss4 Score>
-5.510795593262

> <Number of Confs>
200

> <og_smiles_field>
C=C(Br)CN(C)CC1CC1CC

$$$$

  -OEChem-03232314423D

 52 53  0     1  0  0  0  0  0999 V2000
   41.5610   33.3833   15.8738 C   0  0  0  0  0  0  0  0  0  0  0  0
   45.0124   36.1341   14.5209 C   0  0  0  0  0  0  0  0  0  0  0  0
   48.9925   37.1611   18.2234 C   0  0  0  0  0  0  0  0  0  0  0  0
   47.5758   37.0373   18.7848 C   0  0  0  0  0  0  0  0  0  0  0  0
   49.0364   37.9191   16.8997 C   0  0  0  0  0  0  0  0  0  0  0  0
   46.6456   36.1064   18.0071 C   0  0  0  0  0  0  0  0  0  0  0  0
   42.1334   39.0715   11.2428 C   0  0  0  0  0  0  0  0  0  0  0  0
   41.0654   36.9240   11.0284 C   0  0  0  0  0  0  0  0  0  0  0  0
   48.7049   37.0732   15.6733 C   0  0  0  0  0  0  0  0  0  0  0  0
   41.5553   39.4627    9.8857 C   0  0  0  0  0  0  0  0  0  0  0  0
   40.5134   37.3653    9.6759 C   0  0  0  0  0  0  0  0  0  0  0  0
   46.5536   36.4152   16.5110 C   0  0  2  0  0  0  0  0  0  0  0  0
   42.1865   34.5767   15.2850 C   0  0  0  0  0  0  0  0  0  0  0  0
   45.4469   35.5834   15.8695 C   0  0  0  0  0  0  0  0  0  0  0  0
   42.8750   37.2174   12.5967 C   0  0  0  0  0  0  0  0  0  0  0  0
   43.3986   34.2221   14.4302 C   0  0  0  0  0  0  0  0  0  0  0  0
   43.4815   35.8248   12.5604 C   0  0  0  0  0  0  0  0  0  0  0  0
   41.0659   32.4429   16.3395 N   0  0  0  0  0  0  0  0  0  0  0  0
   42.3326   37.6166   11.2996 N   0  0  0  0  0  0  0  0  0  0  0  0
   44.0040   35.4212   13.8638 N   0  0  0  0  0  0  0  0  0  0  0  0
   45.5373   37.1507   14.0587 O   0  0  0  0  0  0  0  0  0  0  0  0
   40.3222   38.7803    9.6548 O   0  0  0  0  0  0  0  0  0  0  0  0
   47.7752   36.0221   15.8899 O   0  0  0  0  0  0  0  0  0  0  0  0
   49.5883   37.7225   18.9541 H   0  0  0  0  0  0  0  0  0  0  0  0
   49.4616   36.1752   18.1270 H   0  0  0  0  0  0  0  0  0  0  0  0
   47.6417   36.6693   19.8162 H   0  0  0  0  0  0  0  0  0  0  0  0
   47.1192   38.0333   18.8454 H   0  0  0  0  0  0  0  0  0  0  0  0
   48.3497   38.7734   16.9472 H   0  0  0  0  0  0  0  0  0  0  0  0
   50.0342   38.3520   16.7557 H   0  0  0  0  0  0  0  0  0  0  0  0
   47.0019   35.0770   18.1449 H   0  0  0  0  0  0  0  0  0  0  0  0
   45.6489   36.1661   18.4613 H   0  0  0  0  0  0  0  0  0  0  0  0
   43.0865   39.5884   11.3844 H   0  0  0  0  0  0  0  0  0  0  0  0
   41.4464   39.3887   12.0346 H   0  0  0  0  0  0  0  0  0  0  0  0
   40.3348   37.1539   11.8114 H   0  0  0  0  0  0  0  0  0  0  0  0
   41.2233   35.8421   11.0095 H   0  0  0  0  0  0  0  0  0  0  0  0
   48.3429   37.7115   14.8587 H   0  0  0  0  0  0  0  0  0  0  0  0
   49.6238   36.5990   15.3110 H   0  0  0  0  0  0  0  0  0  0  0  0
   41.3503   40.5379    9.8649 H   0  0  0  0  0  0  0  0  0  0  0  0
   42.2544   39.2420    9.0700 H   0  0  0  0  0  0  0  0  0  0  0  0
   41.1767   37.0735    8.8524 H   0  0  0  0  0  0  0  0  0  0  0  0
   39.5406   36.8958    9.4989 H   0  0  0  0  0  0  0  0  0  0  0  0
   46.3363   37.4757   16.3324 H   0  0  0  0  0  0  0  0  0  0  0  0
   42.5054   35.2451   16.0933 H   0  0  0  0  0  0  0  0  0  0  0  0
   41.4472   35.1242   14.6885 H   0  0  0  0  0  0  0  0  0  0  0  0
   44.5863   35.5733   16.5442 H   0  0  0  0  0  0  0  0  0  0  0  0
   45.8151   34.5624   15.7352 H   0  0  0  0  0  0  0  0  0  0  0  0
   43.6166   37.9687   12.8863 H   0  0  0  0  0  0  0  0  0  0  0  0
   42.0487   37.2490   13.3136 H   0  0  0  0  0  0  0  0  0  0  0  0
   44.1465   33.7140   15.0477 H   0  0  0  0  0  0  0  0  0  0  0  0
   43.1187   33.5398   13.6198 H   0  0  0  0  0  0  0  0  0  0  0  0
   42.7233   35.0886   12.2763 H   0  0  0  0  0  0  0  0  0  0  0  0
   44.3066   35.7677   11.8432 H   0  0  0  0  0  0  0  0  0  0  0  0
  1 13  1  0  0  0  0
  1 18  3  0  0  0  0
  2 14  1  0  0  0  0
  2 20  1  0  0  0  0
  2 21  2  0  0  0  0
  3  4  1  0  0  0  0
  3  5  1  0  0  0  0
  4  6  1  0  0  0  0
  5  9  1  0  0  0  0
  6 12  1  0  0  0  0
  7 10  1  0  0  0  0
  7 19  1  0  0  0  0
  8 11  1  0  0  0  0
  8 19  1  0  0  0  0
  9 23  1  0  0  0  0
 10 22  1  0  0  0  0
 11 22  1  0  0  0  0
 12 14  1  0  0  0  0
 12 23  1  0  0  0  0
 13 16  1  0  0  0  0
 15 17  1  0  0  0  0
 15 19  1  0  0  0  0
 16 20  1  0  0  0  0
 17 20  1  0  0  0  0
  3 24  1  0  0  0  0
  3 25  1  0  0  0  0
  4 26  1  0  0  0  0
  4 27  1  0  0  0  0
  5 28  1  0  0  0  0
  5 29  1  0  0  0  0
  6 30  1  0  0  0  0
  6 31  1  0  0  0  0
  7 32  1  0  0  0  0
  7 33  1  0  0  0  0
  8 34  1  0  0  0  0
  8 35  1  0  0  0  0
  9 36  1  0  0  0  0
  9 37  1  0  0  0  0
 10 38  1  0  0  0  0
 10 39  1  0  0  0  0
 11 40  1  0  0  0  0
 11 41  1  0  0  0  0
 12 42  1  0  0  0  0
 13 43  1  0  0  0  0
 13 44  1  0  0  0  0
 14 45  1  0  0  0  0
 14 46  1  0  0  0  0
 15 47  1  0  0  0  0
 15 48  1  0  0  0  0
 16 49  1  0  0  0  0
 16 50  1  0  0  0  0
 17 51  1  0  0  0  0
 17 52  1  0  0  0  0
M  END
> <Chemgauss4 Score>
-5.248672962189

> <Number of Confs>
200

> <og_smiles_field>
N#CCCN(CCN1CCOCC1)C(=O)CC1CCCCCO1

$$$$

  -OEChem-03232314423D

 58 61  0     1  0  0  0  0  0999 V2000
   40.0133   34.2983   12.4369 C   0  0  0  0  0  0  0  0  0  0  0  0
   44.7600   35.4208   16.9917 C   0  0  0  0  0  0  0  0  0  0  0  0
   46.1034   35.7954   16.9984 C   0  0  0  0  0  0  0  0  0  0  0  0
   46.1268   35.7554   14.5850 C   0  0  0  0  0  0  0  0  0  0  0  0
   44.0867   35.2055   15.7807 C   0  0  0  0  0  0  0  0  0  0  0  0
   44.7733   35.3918   14.5665 C   0  0  0  0  0  0  0  0  0  0  0  0
   46.7868   35.9598   15.7963 C   0  0  0  0  0  0  0  0  0  0  0  0
   41.1407   33.4288   14.4022 C   0  0  0  0  0  0  0  0  0  0  0  0
   49.1425   38.1846   17.2165 C   0  0  0  0  0  0  0  0  0  0  0  0
   44.0822   35.1472   13.2492 C   0  0  0  0  0  0  0  0  0  0  0  0
   42.6297   34.8128   15.8080 C   0  0  0  0  0  0  0  0  0  0  0  0
   40.9215   30.1729   11.6051 C   0  0  0  0  0  0  0  0  0  0  0  0
   41.7928   32.5896   12.1263 C   0  0  0  0  0  0  0  0  0  0  0  0
   39.6343   31.9239   13.0705 C   0  0  0  0  0  0  0  0  0  0  0  0
   42.5668   35.2649   13.3774 C   0  0  0  0  0  0  0  0  0  0  0  0
   41.1499   31.6005   11.1946 C   0  0  2  0  0  0  0  0  0  0  0  0
   39.8313   31.1938   11.7714 C   0  0  1  0  0  0  0  0  0  0  0  0
   40.6386   33.0974   13.0197 C   0  0  0  0  0  0  0  0  0  0  0  0
   51.6620   39.8035   16.9891 C   0  0  0  0  0  0  0  0  0  0  0  0
   49.2169   40.8027   14.4898 C   0  0  0  0  0  0  0  0  0  0  0  0
   48.2257   36.3526   15.8042 C   0  0  0  0  0  0  0  0  0  0  0  0
   49.1669   39.7033   17.3054 C   0  0  0  0  0  0  0  0  0  0  0  0
   50.3152   40.3295   16.5128 C   0  0  2  0  0  0  0  0  0  0  0  0
   39.5212   35.2436   11.9781 N   0  0  0  0  0  0  0  0  0  0  0  0
   42.0953   34.4417   14.4946 N   0  0  0  0  0  0  0  0  0  0  0  0
   48.4112   37.7463   16.1191 N   0  0  0  0  0  0  0  0  0  0  0  0
   40.7004   32.8045   15.3710 O   0  0  0  0  0  0  0  0  0  0  0  0
   49.7034   37.4530   18.0277 O   0  0  0  0  0  0  0  0  0  0  0  0
   50.1867   39.9905   15.1334 O   0  0  0  0  0  0  0  0  0  0  0  0
   44.2393   35.2930   17.9374 H   0  0  0  0  0  0  0  0  0  0  0  0
   46.6098   35.9531   17.9472 H   0  0  0  0  0  0  0  0  0  0  0  0
   46.6656   35.8820   13.6483 H   0  0  0  0  0  0  0  0  0  0  0  0
   44.4289   35.8753   12.5038 H   0  0  0  0  0  0  0  0  0  0  0  0
   44.3541   34.1464   12.8873 H   0  0  0  0  0  0  0  0  0  0  0  0
   42.5051   33.9825   16.5039 H   0  0  0  0  0  0  0  0  0  0  0  0
   42.0360   35.6607   16.1598 H   0  0  0  0  0  0  0  0  0  0  0  0
   40.8044   29.4371   10.8186 H   0  0  0  0  0  0  0  0  0  0  0  0
   41.4231   29.8013   12.4899 H   0  0  0  0  0  0  0  0  0  0  0  0
   42.5766   32.0918   12.7119 H   0  0  0  0  0  0  0  0  0  0  0  0
   42.2699   33.4016   11.5638 H   0  0  0  0  0  0  0  0  0  0  0  0
   38.5978   32.2691   13.1702 H   0  0  0  0  0  0  0  0  0  0  0  0
   39.8364   31.2466   13.9105 H   0  0  0  0  0  0  0  0  0  0  0  0
   42.2700   36.2965   13.5884 H   0  0  0  0  0  0  0  0  0  0  0  0
   42.0915   34.9661   12.4419 H   0  0  0  0  0  0  0  0  0  0  0  0
   41.2030   31.8586   10.1476 H   0  0  0  0  0  0  0  0  0  0  0  0
   38.9660   31.1689   11.1261 H   0  0  0  0  0  0  0  0  0  0  0  0
   51.7102   38.7125   16.9215 H   0  0  0  0  0  0  0  0  0  0  0  0
   51.8399   40.0959   18.0297 H   0  0  0  0  0  0  0  0  0  0  0  0
   52.4811   40.2292   16.3988 H   0  0  0  0  0  0  0  0  0  0  0  0
   49.1429   40.5184   13.4373 H   0  0  0  0  0  0  0  0  0  0  0  0
   49.5057   41.8534   14.5750 H   0  0  0  0  0  0  0  0  0  0  0  0
   48.2492   40.6525   14.9743 H   0  0  0  0  0  0  0  0  0  0  0  0
   48.7914   35.7690   16.5440 H   0  0  0  0  0  0  0  0  0  0  0  0
   48.6982   36.1715   14.8290 H   0  0  0  0  0  0  0  0  0  0  0  0
   49.2461   39.9735   18.3657 H   0  0  0  0  0  0  0  0  0  0  0  0
   48.2052   40.0678   16.9240 H   0  0  0  0  0  0  0  0  0  0  0  0
   50.3066   41.4220   16.5958 H   0  0  0  0  0  0  0  0  0  0  0  0
   47.9563   38.4341   15.5229 H   0  0  0  0  0  0  0  0  0  0  0  0
  1 18  1  0  0  0  0
  1 24  3  0  0  0  0
  2  3  1  0  0  0  0
  2  5  2  0  0  0  0
  3  7  2  0  0  0  0
  4  6  2  0  0  0  0
  4  7  1  0  0  0  0
  5  6  1  0  0  0  0
  5 11  1  0  0  0  0
  6 10  1  0  0  0  0
  7 21  1  0  0  0  0
  8 18  1  0  0  0  0
  8 25  1  0  0  0  0
  8 27  2  0  0  0  0
  9 22  1  0  0  0  0
  9 26  1  0  0  0  0
  9 28  2  0  0  0  0
 10 15  1  0  0  0  0
 11 25  1  0  0  0  0
 12 16  1  0  0  0  0
 12 17  1  0  0  0  0
 13 16  1  0  0  0  0
 13 18  1  0  0  0  0
 14 17  1  0  0  0  0
 14 18  1  0  0  0  0
 15 25  1  0  0  0  0
 16 17  1  0  0  0  0
 19 23  1  0  0  0  0
 20 29  1  0  0  0  0
 21 26  1  0  0  0  0
 22 23  1  0  0  0  0
 23 29  1  0  0  0  0
  2 30  1  0  0  0  0
  3 31  1  0  0  0  0
  4 32  1  0  0  0  0
 10 33  1  0  0  0  0
 10 34  1  0  0  0  0
 11 35  1  0  0  0  0
 11 36  1  0  0  0  0
 12 37  1  0  0  0  0
 12 38  1  0  0  0  0
 13 39  1  0  0  0  0
 13 40  1  0  0  0  0
 14 41  1  0  0  0  0
 14 42  1  0  0  0  0
 15 43  1  0  0  0  0
 15 44  1  0  0  0  0
 16 45  1  0  0  0  0
 17 46  1  0  0  0  0
 19 47  1  0  0  0  0
 19 48  1  0  0  0  0
 19 49  1  0  0  0  0
 20 50  1  0  0  0  0
 20 51  1  0  0  0  0
 20 52  1  0  0  0  0
 21 53  1  0  0  0  0
 21 54  1  0  0  0  0
 22 55  1  0  0  0  0
 22 56  1  0  0  0  0
 23 57  1  0  0  0  0
 26 58  1  0  0  0  0
M  END
> <Chemgauss4 Score>
-7.105439662933

> <Number of Confs>
200

> <og_smiles_field>
COC(C)CC(=O)NCC1=CC=C2CN(C(=O)C3(C#N)CC4CC4C3)CCC2=C1

$$$$

  -OEChem-03232314423D

 49 52  0     1  0  0  0  0  0999 V2000
   50.8822   36.4701   13.9385 C   0  0  0  0  0  0  0  0  0  0  0  0
   48.5144   37.0013   14.2405 C   0  0  0  0  0  0  0  0  0  0  0  0
   47.2972   36.7909   14.8883 C   0  0  0  0  0  0  0  0  0  0  0  0
   39.6654   35.2929   10.2503 C   0  0  0  0  0  0  0  0  0  0  0  0
   49.5392   35.2967   15.6121 C   0  0  0  0  0  0  0  0  0  0  0  0
   38.5396   36.0447   10.5051 C   0  0  0  0  0  0  0  0  0  0  0  0
   40.5900   37.1590   11.2824 C   0  0  0  0  0  0  0  0  0  0  0  0
   49.6354   36.2542   14.6024 C   0  0  0  0  0  0  0  0  0  0  0  0
   47.2010   35.8334   15.8981 C   0  0  0  0  0  0  0  0  0  0  0  0
   40.8532   35.9382   10.7007 C   0  0  0  0  0  0  0  0  0  0  0  0
   48.3220   35.0863   16.2600 C   0  0  0  0  0  0  0  0  0  0  0  0
   45.8948   35.6252   16.5746 C   0  0  0  0  0  0  0  0  0  0  0  0
   42.9554   35.1828   11.8785 C   0  0  0  0  0  0  0  0  0  0  0  0
   41.7827   33.0862   14.8121 C   0  0  0  0  0  0  0  0  0  0  0  0
   43.5603   32.6061   16.6735 C   0  0  0  0  0  0  0  0  0  0  0  0
   42.8649   35.2160   14.9680 C   0  0  0  0  0  0  0  0  0  0  0  0
   42.2084   33.2374   16.2702 C   0  0  1  0  0  0  0  0  0  0  0  0
   42.8430   34.6436   16.3902 C   0  0  1  0  0  0  0  0  0  0  0  0
   42.7391   34.0016   14.0530 C   0  0  2  0  0  0  0  0  0  0  0  0
   44.0839   33.9992   17.0570 C   0  0  2  0  0  0  0  0  0  0  0  0
   42.2331   35.3532   10.5559 C   0  0  0  0  0  0  0  0  0  0  0  0
   51.8948   36.6453   13.3993 N   0  0  0  0  0  0  0  0  0  0  0  0
   45.3678   34.3539   16.4697 N   0  0  0  0  0  0  0  0  0  0  0  0
   42.2660   34.3323   12.7399 N   0  0  0  0  0  0  0  0  0  0  0  0
   45.3619   36.5683   17.1535 O   0  0  0  0  0  0  0  0  0  0  0  0
   44.0220   35.7311   12.1442 O   0  0  0  0  0  0  0  0  0  0  0  0
   48.2479   34.1461   17.2440 O   0  0  0  0  0  0  0  0  0  0  0  0
   38.9166   37.5223   11.2842 S   0  0  0  0  0  0  0  0  0  0  0  0
   48.5737   37.7513   13.4553 H   0  0  0  0  0  0  0  0  0  0  0  0
   46.4304   37.3789   14.5976 H   0  0  0  0  0  0  0  0  0  0  0  0
   39.6338   34.3264    9.7633 H   0  0  0  0  0  0  0  0  0  0  0  0
   50.4087   34.7097   15.9005 H   0  0  0  0  0  0  0  0  0  0  0  0
   37.5139   35.7975   10.2705 H   0  0  0  0  0  0  0  0  0  0  0  0
   41.2972   37.8582   11.7065 H   0  0  0  0  0  0  0  0  0  0  0  0
   41.8419   32.0479   14.4706 H   0  0  0  0  0  0  0  0  0  0  0  0
   40.7458   33.4257   14.6967 H   0  0  0  0  0  0  0  0  0  0  0  0
   43.4976   31.9034   17.5109 H   0  0  0  0  0  0  0  0  0  0  0  0
   44.0998   32.1113   15.8581 H   0  0  0  0  0  0  0  0  0  0  0  0
   42.0008   35.8807   14.8392 H   0  0  0  0  0  0  0  0  0  0  0  0
   43.7659   35.8022   14.7643 H   0  0  0  0  0  0  0  0  0  0  0  0
   41.4085   33.0355   16.9914 H   0  0  0  0  0  0  0  0  0  0  0  0
   42.3146   35.3207   17.0732 H   0  0  0  0  0  0  0  0  0  0  0  0
   43.7161   33.5198   13.9338 H   0  0  0  0  0  0  0  0  0  0  0  0
   44.1007   34.1529   18.1432 H   0  0  0  0  0  0  0  0  0  0  0  0
   42.1681   34.3764   10.0600 H   0  0  0  0  0  0  0  0  0  0  0  0
   42.8409   35.9942    9.9047 H   0  0  0  0  0  0  0  0  0  0  0  0
   45.8276   33.6384   15.9248 H   0  0  0  0  0  0  0  0  0  0  0  0
   41.3852   33.9265   12.4225 H   0  0  0  0  0  0  0  0  0  0  0  0
   49.1116   33.7227   17.3677 H   0  0  0  0  0  0  0  0  0  0  0  0
  1  8  1  0  0  0  0
  1 22  3  0  0  0  0
  2  3  1  0  0  0  0
  2  8  2  0  0  0  0
  3  9  2  0  0  0  0
  4  6  2  0  0  0  0
  4 10  1  0  0  0  0
  5  8  1  0  0  0  0
  5 11  2  0  0  0  0
  6 28  1  0  0  0  0
  7 10  2  0  0  0  0
  7 28  1  0  0  0  0
  9 11  1  0  0  0  0
  9 12  1  0  0  0  0
 10 21  1  0  0  0  0
 11 27  1  0  0  0  0
 12 23  1  0  0  0  0
 12 25  2  0  0  0  0
 13 21  1  0  0  0  0
 13 24  1  0  0  0  0
 13 26  2  0  0  0  0
 14 17  1  0  0  0  0
 14 19  1  0  0  0  0
 15 17  1  0  0  0  0
 15 20  1  0  0  0  0
 16 18  1  0  0  0  0
 16 19  1  0  0  0  0
 17 18  1  0  0  0  0
 18 20  1  0  0  0  0
 19 24  1  0  0  0  0
 20 23  1  0  0  0  0
  2 29  1  0  0  0  0
  3 30  1  0  0  0  0
  4 31  1  0  0  0  0
  5 32  1  0  0  0  0
  6 33  1  0  0  0  0
  7 34  1  0  0  0  0
 14 35  1  0  0  0  0
 14 36  1  0  0  0  0
 15 37  1  0  0  0  0
 15 38  1  0  0  0  0
 16 39  1  0  0  0  0
 16 40  1  0  0  0  0
 17 41  1  0  0  0  0
 18 42  1  0  0  0  0
 19 43  1  0  0  0  0
 20 44  1  0  0  0  0
 21 45  1  0  0  0  0
 21 46  1  0  0  0  0
 23 47  1  0  0  0  0
 24 48  1  0  0  0  0
 27 49  1  0  0  0  0
M  END
> <Chemgauss4 Score>
-4.695258140564

> <Number of Confs>
200

> <og_smiles_field>
N#CC1=CC=C(C(=O)N[C@@H]2C[C@@H]3C[C@@H](NC(=O)CC4=CSC=C4)C[C@@H]32)C(O)=C1

$$$$

  -OEChem-03232314423D

 42 44  0     1  0  0  0  0  0999 V2000
   46.7668   36.0587   14.1155 C   0  0  0  0  0  0  0  0  0  0  0  0
   45.5826   35.4217   14.5227 C   0  0  0  0  0  0  0  0  0  0  0  0
   47.5415   36.7671   15.0320 C   0  0  0  0  0  0  0  0  0  0  0  0
   38.1721   33.5538   12.7355 C   0  0  0  0  0  0  0  0  0  0  0  0
   38.7558   33.4333   13.9746 C   0  0  0  0  0  0  0  0  0  0  0  0
   40.1873   34.1894   12.4792 C   0  0  0  0  0  0  0  0  0  0  0  0
   45.1576   35.4809   15.8553 C   0  0  0  0  0  0  0  0  0  0  0  0
   45.9299   36.1740   16.7753 C   0  0  0  0  0  0  0  0  0  0  0  0
   47.0888   36.8128   16.3351 C   0  0  0  0  0  0  0  0  0  0  0  0
   43.9191   34.8212   16.2400 C   0  0  0  0  0  0  0  0  0  0  0  0
   45.5999   36.3773   18.2275 C   0  0  0  0  0  0  0  0  0  0  0  0
   46.9084   36.7851   18.9179 C   0  0  0  0  0  0  0  0  0  0  0  0
   42.3457   31.8613   13.9609 C   0  0  0  0  0  0  0  0  0  0  0  0
   41.0861   33.9032   14.8188 C   0  0  0  0  0  0  0  0  0  0  0  0
   42.6774   32.6465   16.3434 C   0  0  0  0  0  0  0  0  0  0  0  0
   41.6878   32.5290   15.1732 C   0  0  2  0  0  0  0  0  0  0  0  0
   39.0685   34.0246   11.8090 N   0  0  0  0  0  0  0  0  0  0  0  0
   40.0467   33.8437   13.7946 N   0  0  0  0  0  0  0  0  0  0  0  0
   43.8460   33.4389   16.0347 N   0  0  0  0  0  0  0  0  0  0  0  0
   42.9736   35.4788   16.7088 O   0  0  0  0  0  0  0  0  0  0  0  0
   47.5897   39.0010   17.6083 O   0  0  0  0  0  0  0  0  0  0  0  0
   49.2631   37.0804   17.7205 O   0  0  0  0  0  0  0  0  0  0  0  0
   47.9113   37.5915   17.6588 S   0  0  0  0  0  0  0  0  0  0  0  0
   47.0789   35.9970   13.0766 H   0  0  0  0  0  0  0  0  0  0  0  0
   44.9968   34.8803   13.7833 H   0  0  0  0  0  0  0  0  0  0  0  0
   48.4580   37.2573   14.7257 H   0  0  0  0  0  0  0  0  0  0  0  0
   37.1520   33.3253   12.4634 H   0  0  0  0  0  0  0  0  0  0  0  0
   38.3781   33.1034   14.9323 H   0  0  0  0  0  0  0  0  0  0  0  0
   41.1208   34.5513   12.0705 H   0  0  0  0  0  0  0  0  0  0  0  0
   44.8625   37.1837   18.3130 H   0  0  0  0  0  0  0  0  0  0  0  0
   45.1925   35.4750   18.6939 H   0  0  0  0  0  0  0  0  0  0  0  0
   46.7525   37.4609   19.7613 H   0  0  0  0  0  0  0  0  0  0  0  0
   47.4624   35.8999   19.2489 H   0  0  0  0  0  0  0  0  0  0  0  0
   43.1662   32.4769   13.5769 H   0  0  0  0  0  0  0  0  0  0  0  0
   41.6291   31.7048   13.1478 H   0  0  0  0  0  0  0  0  0  0  0  0
   42.7683   30.8879   14.2295 H   0  0  0  0  0  0  0  0  0  0  0  0
   40.6218   34.3596   15.7024 H   0  0  0  0  0  0  0  0  0  0  0  0
   41.8604   34.5990   14.4737 H   0  0  0  0  0  0  0  0  0  0  0  0
   43.0296   31.6558   16.6498 H   0  0  0  0  0  0  0  0  0  0  0  0
   42.1927   33.1084   17.2102 H   0  0  0  0  0  0  0  0  0  0  0  0
   40.8787   31.8666   15.5086 H   0  0  0  0  0  0  0  0  0  0  0  0
   44.6233   32.9611   15.5904 H   0  0  0  0  0  0  0  0  0  0  0  0
  1  2  1  0  0  0  0
  1  3  2  0  0  0  0
  2  7  2  0  0  0  0
  3  9  1  0  0  0  0
  4  5  2  0  0  0  0
  4 17  1  0  0  0  0
  5 18  1  0  0  0  0
  6 17  2  0  0  0  0
  6 18  1  0  0  0  0
  7  8  1  0  0  0  0
  7 10  1  0  0  0  0
  8  9  2  0  0  0  0
  8 11  1  0  0  0  0
  9 23  1  0  0  0  0
 10 19  1  0  0  0  0
 10 20  2  0  0  0  0
 11 12  1  0  0  0  0
 12 23  1  0  0  0  0
 13 16  1  0  0  0  0
 14 16  1  0  0  0  0
 14 18  1  0  0  0  0
 15 16  1  0  0  0  0
 15 19  1  0  0  0  0
 21 23  2  0  0  0  0
 22 23  2  0  0  0  0
  1 24  1  0  0  0  0
  2 25  1  0  0  0  0
  3 26  1  0  0  0  0
  4 27  1  0  0  0  0
  5 28  1  0  0  0  0
  6 29  1  0  0  0  0
 11 30  1  0  0  0  0
 11 31  1  0  0  0  0
 12 32  1  0  0  0  0
 12 33  1  0  0  0  0
 13 34  1  0  0  0  0
 13 35  1  0  0  0  0
 13 36  1  0  0  0  0
 14 37  1  0  0  0  0
 14 38  1  0  0  0  0
 15 39  1  0  0  0  0
 15 40  1  0  0  0  0
 16 41  1  0  0  0  0
 19 42  1  0  0  0  0
M  END
> <Chemgauss4 Score>
-6.357468605042

> <Number of Confs>
200

> <og_smiles_field>
CC(CNC(=O)C1=CC=CC2=C1CCS2(=O)=O)CN1C=CN=C1

$$$$

  -OEChem-03232314423D

 51 54  0     1  0  0  0  0  0999 V2000
   45.7417   35.1152   16.7249 C   0  0  0  0  0  0  0  0  0  0  0  0
   44.5348   34.4293   16.5891 C   0  0  0  0  0  0  0  0  0  0  0  0
   46.1800   35.9637   15.7082 C   0  0  0  0  0  0  0  0  0  0  0  0
   44.2043   35.4403   14.4198 C   0  0  0  0  0  0  0  0  0  0  0  0
   43.7661   34.5918   15.4365 C   0  0  0  0  0  0  0  0  0  0  0  0
   45.4113   36.1262   14.5556 C   0  0  0  0  0  0  0  0  0  0  0  0
   42.5252   33.8855   15.2975 C   0  0  0  0  0  0  0  0  0  0  0  0
   40.7463   33.2247   14.4738 C   0  0  0  0  0  0  0  0  0  0  0  0
   44.3805   40.3673   13.5081 C   0  0  0  0  0  0  0  0  0  0  0  0
   44.4748   40.0774   12.0132 C   0  0  0  0  0  0  0  0  0  0  0  0
   38.2789   33.7829   13.9631 C   0  0  0  0  0  0  0  0  0  0  0  0
   45.0664   39.1902   14.1860 C   0  0  0  0  0  0  0  0  0  0  0  0
   45.2144   38.7517   11.9110 C   0  0  0  0  0  0  0  0  0  0  0  0
   37.1657   33.2822   13.0518 C   0  0  0  0  0  0  0  0  0  0  0  0
   39.5093   32.9016   13.6588 C   0  0  1  0  0  0  0  0  0  0  0  0
   39.6919   32.9283   12.1045 C   0  0  0  0  0  0  0  0  0  0  0  0
   40.4404   31.6916   11.5916 C   0  0  0  0  0  0  0  0  0  0  0  0
   40.3916   34.1919   11.5777 C   0  0  0  0  0  0  0  0  0  0  0  0
   45.8799   37.0346   13.4698 C   0  0  0  0  0  0  0  0  0  0  0  0
   41.7462   34.0188   14.1851 N   0  0  0  0  0  0  0  0  0  0  0  0
   42.0577   33.0600   16.2386 N   0  0  0  0  0  0  0  0  0  0  0  0
   44.9280   38.1181   13.1990 N   0  0  0  0  0  0  0  0  0  0  0  0
   37.7227   34.0104   10.5938 O   0  0  0  0  0  0  0  0  0  0  0  0
   37.5775   31.5472   11.1332 O   0  0  0  0  0  0  0  0  0  0  0  0
   40.8531   32.6121   15.6820 O   0  0  0  0  0  0  0  0  0  0  0  0
   37.9509   32.8997   11.4959 S   0  0  0  0  0  0  0  0  0  0  0  0
   46.3400   34.9896   17.6228 H   0  0  0  0  0  0  0  0  0  0  0  0
   44.2077   33.7710   17.3903 H   0  0  0  0  0  0  0  0  0  0  0  0
   47.1218   36.4938   15.8232 H   0  0  0  0  0  0  0  0  0  0  0  0
   43.6101   35.5718   13.5179 H   0  0  0  0  0  0  0  0  0  0  0  0
   44.8613   41.3158   13.7685 H   0  0  0  0  0  0  0  0  0  0  0  0
   43.3278   40.4308   13.8081 H   0  0  0  0  0  0  0  0  0  0  0  0
   43.4680   39.9957   11.5871 H   0  0  0  0  0  0  0  0  0  0  0  0
   45.0026   40.8735   11.4781 H   0  0  0  0  0  0  0  0  0  0  0  0
   38.4925   34.8386   13.7563 H   0  0  0  0  0  0  0  0  0  0  0  0
   37.9810   33.7155   15.0154 H   0  0  0  0  0  0  0  0  0  0  0  0
   46.1193   39.4334   14.3714 H   0  0  0  0  0  0  0  0  0  0  0  0
   44.5896   38.9401   15.1374 H   0  0  0  0  0  0  0  0  0  0  0  0
   44.8563   38.1549   11.0680 H   0  0  0  0  0  0  0  0  0  0  0  0
   46.2876   38.9362   11.7824 H   0  0  0  0  0  0  0  0  0  0  0  0
   36.7275   32.3589   13.4421 H   0  0  0  0  0  0  0  0  0  0  0  0
   36.3837   34.0288   12.8987 H   0  0  0  0  0  0  0  0  0  0  0  0
   39.2242   31.8445   13.9475 H   0  0  0  0  0  0  0  0  0  0  0  0
   40.5444   31.7516   10.5113 H   0  0  0  0  0  0  0  0  0  0  0  0
   39.8829   30.7955   11.8513 H   0  0  0  0  0  0  0  0  0  0  0  0
   41.4263   31.6483   12.0473 H   0  0  0  0  0  0  0  0  0  0  0  0
   40.4773   34.1295   10.4980 H   0  0  0  0  0  0  0  0  0  0  0  0
   41.3799   34.2638   12.0193 H   0  0  0  0  0  0  0  0  0  0  0  0
   39.8058   35.0642   11.8482 H   0  0  0  0  0  0  0  0  0  0  0  0
   46.8423   37.4981   13.7287 H   0  0  0  0  0  0  0  0  0  0  0  0
   46.0335   36.4908   12.5275 H   0  0  0  0  0  0  0  0  0  0  0  0
  1  2  1  0  0  0  0
  1  3  2  0  0  0  0
  2  5  2  0  0  0  0
  3  6  1  0  0  0  0
  4  5  1  0  0  0  0
  4  6  2  0  0  0  0
  5  7  1  0  0  0  0
  6 19  1  0  0  0  0
  7 20  1  0  0  0  0
  7 21  2  0  0  0  0
  8 15  1  0  0  0  0
  8 20  2  0  0  0  0
  8 25  1  0  0  0  0
  9 10  1  0  0  0  0
  9 12  1  0  0  0  0
 10 13  1  0  0  0  0
 11 14  1  0  0  0  0
 11 15  1  0  0  0  0
 12 22  1  0  0  0  0
 13 22  1  0  0  0  0
 14 26  1  0  0  0  0
 15 16  1  0  0  0  0
 16 17  1  0  0  0  0
 16 18  1  0  0  0  0
 16 26  1  0  0  0  0
 19 22  1  0  0  0  0
 21 25  1  0  0  0  0
 23 26  2  0  0  0  0
 24 26  2  0  0  0  0
  1 27  1  0  0  0  0
  2 28  1  0  0  0  0
  3 29  1  0  0  0  0
  4 30  1  0  0  0  0
  9 31  1  0  0  0  0
  9 32  1  0  0  0  0
 10 33  1  0  0  0  0
 10 34  1  0  0  0  0
 11 35  1  0  0  0  0
 11 36  1  0  0  0  0
 12 37  1  0  0  0  0
 12 38  1  0  0  0  0
 13 39  1  0  0  0  0
 13 40  1  0  0  0  0
 14 41  1  0  0  0  0
 14 42  1  0  0  0  0
 15 43  1  0  0  0  0
 17 44  1  0  0  0  0
 17 45  1  0  0  0  0
 17 46  1  0  0  0  0
 18 47  1  0  0  0  0
 18 48  1  0  0  0  0
 18 49  1  0  0  0  0
 19 50  1  0  0  0  0
 19 51  1  0  0  0  0
M  END
> <Chemgauss4 Score>
-6.395527839661

> <Number of Confs>
200

> <og_smiles_field>
CC1(C)C(C2=NC(C3=CC=CC(CN4CCCC4)=C3)=NO2)CCS1(=O)=O

$$$$

  -OEChem-03232314423D

 56 58  0     1  0  0  0  0  0999 V2000
   46.3541   37.5138   14.4498 C   0  0  0  0  0  0  0  0  0  0  0  0
   49.3705   36.0767   13.8161 C   0  0  0  0  0  0  0  0  0  0  0  0
   48.1161   35.7572   14.6191 C   0  0  0  0  0  0  0  0  0  0  0  0
   49.9619   37.2676   14.5501 C   0  0  0  0  0  0  0  0  0  0  0  0
   50.1466   40.0291   15.7201 C   0  0  0  0  0  0  0  0  0  0  0  0
   47.7119   39.9047   16.3264 C   0  0  0  0  0  0  0  0  0  0  0  0
   44.0494   35.1168   13.0821 C   0  0  0  0  0  0  0  0  0  0  0  0
   44.7390   34.3851   15.3884 C   0  0  0  0  0  0  0  0  0  0  0  0
   50.3182   41.0680   16.8281 C   0  0  0  0  0  0  0  0  0  0  0  0
   47.9796   40.9492   17.4100 C   0  0  0  0  0  0  0  0  0  0  0  0
   44.2762   36.5677   13.4990 C   0  0  0  0  0  0  0  0  0  0  0  0
   44.9545   35.8491   15.7671 C   0  0  0  0  0  0  0  0  0  0  0  0
   47.6146   37.1061   15.1494 C   0  0  1  0  0  0  0  0  0  0  0  0
   48.7343   38.1228   14.8621 C   0  0  1  0  0  0  0  0  0  0  0  0
   48.9735   39.0875   16.0202 C   0  0  0  0  0  0  0  0  0  0  0  0
   43.6975   34.2074   14.2704 C   0  0  0  0  0  0  0  0  0  0  0  0
   42.2711   34.4552   14.7712 C   0  0  0  0  0  0  0  0  0  0  0  0
   41.9102   33.5760   15.9591 C   0  0  0  0  0  0  0  0  0  0  0  0
   49.0902   41.8340   17.0517 N   0  0  0  0  0  0  0  0  0  0  0  0
   45.2610   36.6568   14.5796 N   0  0  0  0  0  0  0  0  0  0  0  0
   40.5647   33.7923   16.4141 N   0  0  0  0  0  0  0  0  0  0  0  0
   46.3378   38.5638   13.8022 O   0  0  0  0  0  0  0  0  0  0  0  0
   43.7577   32.8546   13.8076 O   0  0  0  0  0  0  0  0  0  0  0  0
   50.0641   35.2281   13.8462 H   0  0  0  0  0  0  0  0  0  0  0  0
   49.1467   36.2999   12.7691 H   0  0  0  0  0  0  0  0  0  0  0  0
   47.3602   35.2682   13.9745 H   0  0  0  0  0  0  0  0  0  0  0  0
   48.3266   35.0499   15.4417 H   0  0  0  0  0  0  0  0  0  0  0  0
   50.5266   36.9676   15.4264 H   0  0  0  0  0  0  0  0  0  0  0  0
   50.6230   37.8141   13.8795 H   0  0  0  0  0  0  0  0  0  0  0  0
   49.9805   40.5420   14.7635 H   0  0  0  0  0  0  0  0  0  0  0  0
   51.0728   39.4517   15.6148 H   0  0  0  0  0  0  0  0  0  0  0  0
   46.9041   39.2388   16.6526 H   0  0  0  0  0  0  0  0  0  0  0  0
   47.3616   40.4081   15.4156 H   0  0  0  0  0  0  0  0  0  0  0  0
   43.2464   35.0815   12.3290 H   0  0  0  0  0  0  0  0  0  0  0  0
   44.9643   34.7524   12.5901 H   0  0  0  0  0  0  0  0  0  0  0  0
   45.7062   33.9659   15.0708 H   0  0  0  0  0  0  0  0  0  0  0  0
   44.4288   33.8245   16.2845 H   0  0  0  0  0  0  0  0  0  0  0  0
   50.6322   40.5802   17.7592 H   0  0  0  0  0  0  0  0  0  0  0  0
   51.1183   41.7613   16.5462 H   0  0  0  0  0  0  0  0  0  0  0  0
   47.0784   41.5556   17.5519 H   0  0  0  0  0  0  0  0  0  0  0  0
   48.1862   40.4559   18.3678 H   0  0  0  0  0  0  0  0  0  0  0  0
   44.6583   37.1609   12.6586 H   0  0  0  0  0  0  0  0  0  0  0  0
   43.3241   37.0167   13.8027 H   0  0  0  0  0  0  0  0  0  0  0  0
   44.0724   36.2187   16.2951 H   0  0  0  0  0  0  0  0  0  0  0  0
   45.8029   35.9521   16.4554 H   0  0  0  0  0  0  0  0  0  0  0  0
   47.3937   37.0370   16.2199 H   0  0  0  0  0  0  0  0  0  0  0  0
   48.5003   38.7286   13.9691 H   0  0  0  0  0  0  0  0  0  0  0  0
   49.2251   38.4930   16.9082 H   0  0  0  0  0  0  0  0  0  0  0  0
   41.5783   34.2505   13.9497 H   0  0  0  0  0  0  0  0  0  0  0  0
   42.1675   35.5124   15.0339 H   0  0  0  0  0  0  0  0  0  0  0  0
   41.9865   32.5215   15.6759 H   0  0  0  0  0  0  0  0  0  0  0  0
   42.5823   33.7511   16.8051 H   0  0  0  0  0  0  0  0  0  0  0  0
   49.2437   42.5031   17.8056 H   0  0  0  0  0  0  0  0  0  0  0  0
   40.5793   34.1082   17.3629 H   0  0  0  0  0  0  0  0  0  0  0  0
   40.1253   34.4834   15.8399 H   0  0  0  0  0  0  0  0  0  0  0  0
   43.5338   32.2978   14.5675 H   0  0  0  0  0  0  0  0  0  0  0  0
  1 13  1  0  0  0  0
  1 20  1  0  0  0  0
  1 22  2  0  0  0  0
  2  3  1  0  0  0  0
  2  4  1  0  0  0  0
  3 13  1  0  0  0  0
  4 14  1  0  0  0  0
  5  9  1  0  0  0  0
  5 15  1  0  0  0  0
  6 10  1  0  0  0  0
  6 15  1  0  0  0  0
  7 11  1  0  0  0  0
  7 16  1  0  0  0  0
  8 12  1  0  0  0  0
  8 16  1  0  0  0  0
  9 19  1  0  0  0  0
 10 19  1  0  0  0  0
 11 20  1  0  0  0  0
 12 20  1  0  0  0  0
 13 14  1  0  0  0  0
 14 15  1  0  0  0  0
 16 17  1  0  0  0  0
 16 23  1  0  0  0  0
 17 18  1  0  0  0  0
 18 21  1  0  0  0  0
  2 24  1  0  0  0  0
  2 25  1  0  0  0  0
  3 26  1  0  0  0  0
  3 27  1  0  0  0  0
  4 28  1  0  0  0  0
  4 29  1  0  0  0  0
  5 30  1  0  0  0  0
  5 31  1  0  0  0  0
  6 32  1  0  0  0  0
  6 33  1  0  0  0  0
  7 34  1  0  0  0  0
  7 35  1  0  0  0  0
  8 36  1  0  0  0  0
  8 37  1  0  0  0  0
  9 38  1  0  0  0  0
  9 39  1  0  0  0  0
 10 40  1  0  0  0  0
 10 41  1  0  0  0  0
 11 42  1  0  0  0  0
 11 43  1  0  0  0  0
 12 44  1  0  0  0  0
 12 45  1  0  0  0  0
 13 46  1  0  0  0  0
 14 47  1  0  0  0  0
 15 48  1  0  0  0  0
 17 49  1  0  0  0  0
 17 50  1  0  0  0  0
 18 51  1  0  0  0  0
 18 52  1  0  0  0  0
 19 53  1  0  0  0  0
 21 54  1  0  0  0  0
 21 55  1  0  0  0  0
 23 56  1  0  0  0  0
M  END
> <Chemgauss4 Score>
-5.978900909424

> <Number of Confs>
95

> <og_smiles_field>
NCCC1(O)CCN(C(=O)C2CCCC2C2CCNCC2)CC1

$$$$

  -OEChem-03232314423D

 44 45  0     1  0  0  0  0  0999 V2000
   40.3022   34.5086   11.9865 C   0  0  0  0  0  0  0  0  0  0  0  0
   39.6467   33.4794   12.6294 C   0  0  0  0  0  0  0  0  0  0  0  0
   41.5461   34.4008   13.7895 C   0  0  0  0  0  0  0  0  0  0  0  0
   46.0454   36.0490   14.6713 C   0  0  0  0  0  0  0  0  0  0  0  0
   43.6297   33.9630   16.7853 C   0  0  0  0  0  0  0  0  0  0  0  0
   44.8054   34.8837   16.4736 C   0  0  0  0  0  0  0  0  0  0  0  0
   42.3353   34.4582   16.1395 C   0  0  0  0  0  0  0  0  0  0  0  0
   43.6422   35.5764   14.3483 C   0  0  0  0  0  0  0  0  0  0  0  0
   44.9486   35.0722   14.9636 C   0  0  1  0  0  0  0  0  0  0  0  0
   50.3786   37.6048   15.2891 C   0  0  0  0  0  0  0  0  0  0  0  0
   48.5786   37.4322   17.7117 C   0  0  0  0  0  0  0  0  0  0  0  0
   49.4466   35.3826   13.4112 C   0  0  0  0  0  0  0  0  0  0  0  0
   48.4901   36.2295   14.2551 C   0  0  2  0  0  0  0  0  0  0  0  0
   49.1619   36.7230   15.5485 C   0  0  2  0  0  0  0  0  0  0  0  0
   41.3914   35.0384   12.6504 N   0  0  0  0  0  0  0  0  0  0  0  0
   42.5380   34.6758   14.7037 N   0  0  2  0  0  0  0  0  0  0  0  0
   47.2934   35.4706   14.5394 N   0  0  0  0  0  0  0  0  0  0  0  0
   45.7816   37.2414   14.5706 O   0  0  0  0  0  0  0  0  0  0  0  0
   49.8624   34.2346   14.1437 O   0  0  0  0  0  0  0  0  0  0  0  0
   48.2192   37.4441   16.3385 O   0  0  0  0  0  0  0  0  0  0  0  0
   40.4178   33.1522   14.1259 S   0  0  0  0  0  0  0  0  0  0  0  0
   40.0241   34.9138   11.0230 H   0  0  0  0  0  0  0  0  0  0  0  0
   38.7805   32.9228   12.3013 H   0  0  0  0  0  0  0  0  0  0  0  0
   43.8520   32.9495   16.4247 H   0  0  0  0  0  0  0  0  0  0  0  0
   43.4908   33.8811   17.8728 H   0  0  0  0  0  0  0  0  0  0  0  0
   44.6611   35.8413   16.9726 H   0  0  0  0  0  0  0  0  0  0  0  0
   45.7202   34.4367   16.8646 H   0  0  0  0  0  0  0  0  0  0  0  0
   41.5287   33.7298   16.2956 H   0  0  0  0  0  0  0  0  0  0  0  0
   42.0329   35.3910   16.6335 H   0  0  0  0  0  0  0  0  0  0  0  0
   43.4334   36.5900   14.7025 H   0  0  0  0  0  0  0  0  0  0  0  0
   43.7372   35.6135   13.2595 H   0  0  0  0  0  0  0  0  0  0  0  0
   45.2258   34.1375   14.5067 H   0  0  0  0  0  0  0  0  0  0  0  0
   50.0902   38.4845   14.7032 H   0  0  0  0  0  0  0  0  0  0  0  0
   50.8290   37.9465   16.2259 H   0  0  0  0  0  0  0  0  0  0  0  0
   51.1375   37.0784   14.7005 H   0  0  0  0  0  0  0  0  0  0  0  0
   47.8377   37.9919   18.2879 H   0  0  0  0  0  0  0  0  0  0  0  0
   49.5670   37.8821   17.8345 H   0  0  0  0  0  0  0  0  0  0  0  0
   48.6049   36.3981   18.0633 H   0  0  0  0  0  0  0  0  0  0  0  0
   50.3405   35.9413   13.1139 H   0  0  0  0  0  0  0  0  0  0  0  0
   48.9487   35.0239   12.5048 H   0  0  0  0  0  0  0  0  0  0  0  0
   48.1578   37.0930   13.6661 H   0  0  0  0  0  0  0  0  0  0  0  0
   49.4790   35.8525   16.1352 H   0  0  0  0  0  0  0  0  0  0  0  0
   47.3736   34.4639   14.6474 H   0  0  0  0  0  0  0  0  0  0  0  0
   50.4623   33.7383   13.5650 H   0  0  0  0  0  0  0  0  0  0  0  0
  1  2  2  0  0  0  0
  1 15  1  0  0  0  0
  2 21  1  0  0  0  0
  3 15  2  0  0  0  0
  3 16  1  0  0  0  0
  3 21  1  0  0  0  0
  4  9  1  0  0  0  0
  4 17  1  0  0  0  0
  4 18  2  0  0  0  0
  5  6  1  0  0  0  0
  5  7  1  0  0  0  0
  6  9  1  0  0  0  0
  7 16  1  0  0  0  0
  8  9  1  0  0  0  0
  8 16  1  0  0  0  0
 10 14  1  0  0  0  0
 11 20  1  0  0  0  0
 12 13  1  0  0  0  0
 12 19  1  0  0  0  0
 13 14  1  0  0  0  0
 13 17  1  0  0  0  0
 14 20  1  0  0  0  0
  1 22  1  0  0  0  0
  2 23  1  0  0  0  0
  5 24  1  0  0  0  0
  5 25  1  0  0  0  0
  6 26  1  0  0  0  0
  6 27  1  0  0  0  0
  7 28  1  0  0  0  0
  7 29  1  0  0  0  0
  8 30  1  0  0  0  0
  8 31  1  0  0  0  0
  9 32  1  0  0  0  0
 10 33  1  0  0  0  0
 10 34  1  0  0  0  0
 10 35  1  0  0  0  0
 11 36  1  0  0  0  0
 11 37  1  0  0  0  0
 11 38  1  0  0  0  0
 12 39  1  0  0  0  0
 12 40  1  0  0  0  0
 13 41  1  0  0  0  0
 14 42  1  0  0  0  0
 17 43  1  0  0  0  0
 19 44  1  0  0  0  0
M  END
> <Chemgauss4 Score>
-6.875566959381

> <Number of Confs>
200

> <og_smiles_field>
CO[C@H](C)[C@@H](CO)NC(=O)C1CCCN(C2=NC=CS2)C1

$$$$

  -OEChem-03232314423D

 54 56  0     1  0  0  0  0  0999 V2000
   48.9855   38.3489   16.9829 C   0  0  0  0  0  0  0  0  0  0  0  0
   43.4464   34.5730   13.3696 C   0  0  0  0  0  0  0  0  0  0  0  0
   48.4562   37.7502   18.1261 C   0  0  0  0  0  0  0  0  0  0  0  0
   48.7061   37.8171   15.7240 C   0  0  0  0  0  0  0  0  0  0  0  0
   43.1739   35.4856   12.3566 C   0  0  0  0  0  0  0  0  0  0  0  0
   41.9730   35.7868   14.7883 C   0  0  0  0  0  0  0  0  0  0  0  0
   42.8386   34.7194   14.6116 C   0  0  0  0  0  0  0  0  0  0  0  0
   47.3681   36.0877   16.7516 C   0  0  0  0  0  0  0  0  0  0  0  0
   47.6475   36.6195   18.0105 C   0  0  0  0  0  0  0  0  0  0  0  0
   47.8974   36.6865   15.6084 C   0  0  0  0  0  0  0  0  0  0  0  0
   42.2932   36.5186   12.6342 C   0  0  0  0  0  0  0  0  0  0  0  0
   43.1047   33.7707   15.7008 C   0  0  0  0  0  0  0  0  0  0  0  0
   44.4575   33.1278   17.6658 C   0  0  0  0  0  0  0  0  0  0  0  0
   45.0087   35.2465   16.5306 C   0  0  0  0  0  0  0  0  0  0  0  0
   45.9471   32.8272   17.7317 C   0  0  0  0  0  0  0  0  0  0  0  0
   46.4885   34.8609   16.6499 C   0  0  2  0  0  0  0  0  0  0  0  0
   44.0701   39.5803   12.0078 C   0  0  0  0  0  0  0  0  0  0  0  0
   40.7444   38.1047   11.5180 C   0  0  0  0  0  0  0  0  0  0  0  0
   47.4787   36.6612   20.3823 C   0  0  0  0  0  0  0  0  0  0  0  0
   44.3139   38.2959   11.2281 C   0  0  0  0  0  0  0  0  0  0  0  0
   43.0416   37.7351   10.6043 C   0  0  0  0  0  0  0  0  0  0  0  0
   41.6836   36.6935   13.8281 N   0  0  0  0  0  0  0  0  0  0  0  0
   44.1654   34.0451   16.5664 N   0  0  0  0  0  0  0  0  0  0  0  0
   42.0271   37.4412   11.5920 N   0  0  3  0  0  0  0  0  0  0  0  0
   42.3578   32.7958   15.7690 O   0  0  0  0  0  0  0  0  0  0  0  0
   46.6983   34.0398   17.8066 O   0  0  0  0  0  0  0  0  0  0  0  0
   47.1401   36.0495   19.1395 O   0  0  0  0  0  0  0  0  0  0  0  0
   47.5753   36.0588   14.0327 Cl  0  0  0  0  0  0  0  0  0  0  0  0
   49.6152   39.2292   17.0731 H   0  0  0  0  0  0  0  0  0  0  0  0
   44.1342   33.7533   13.1812 H   0  0  0  0  0  0  0  0  0  0  0  0
   48.6779   38.1697   19.1037 H   0  0  0  0  0  0  0  0  0  0  0  0
   49.1264   38.2957   14.8431 H   0  0  0  0  0  0  0  0  0  0  0  0
   43.6436   35.3789   11.3840 H   0  0  0  0  0  0  0  0  0  0  0  0
   41.4686   35.9542   15.7353 H   0  0  0  0  0  0  0  0  0  0  0  0
   43.8821   32.2021   17.5680 H   0  0  0  0  0  0  0  0  0  0  0  0
   44.1342   33.6327   18.5838 H   0  0  0  0  0  0  0  0  0  0  0  0
   44.6975   35.8596   17.3864 H   0  0  0  0  0  0  0  0  0  0  0  0
   44.8382   35.8364   15.6254 H   0  0  0  0  0  0  0  0  0  0  0  0
   46.1699   32.2425   18.6297 H   0  0  0  0  0  0  0  0  0  0  0  0
   46.2776   32.2431   16.8646 H   0  0  0  0  0  0  0  0  0  0  0  0
   46.8123   34.2982   15.7502 H   0  0  0  0  0  0  0  0  0  0  0  0
   43.6491   40.3573   11.3617 H   0  0  0  0  0  0  0  0  0  0  0  0
   43.3621   39.3976   12.8226 H   0  0  0  0  0  0  0  0  0  0  0  0
   44.9965   39.9620   12.4477 H   0  0  0  0  0  0  0  0  0  0  0  0
   40.7286   38.7774   10.6478 H   0  0  0  0  0  0  0  0  0  0  0  0
   39.9482   37.3528   11.4145 H   0  0  0  0  0  0  0  0  0  0  0  0
   40.5803   38.6887   12.4357 H   0  0  0  0  0  0  0  0  0  0  0  0
   47.0103   36.1090   21.2007 H   0  0  0  0  0  0  0  0  0  0  0  0
   47.1345   37.6985   20.3845 H   0  0  0  0  0  0  0  0  0  0  0  0
   48.5641   36.6393   20.5052 H   0  0  0  0  0  0  0  0  0  0  0  0
   44.7340   37.5470   11.9095 H   0  0  0  0  0  0  0  0  0  0  0  0
   45.0635   38.4836   10.4502 H   0  0  0  0  0  0  0  0  0  0  0  0
   42.6113   38.4648    9.9111 H   0  0  0  0  0  0  0  0  0  0  0  0
   43.2442   36.8147   10.0477 H   0  0  0  0  0  0  0  0  0  0  0  0
  1  3  1  0  0  0  0
  1  4  2  0  0  0  0
  2  5  1  0  0  0  0
  2  7  2  0  0  0  0
  3  9  2  0  0  0  0
  4 10  1  0  0  0  0
  5 11  2  0  0  0  0
  6  7  1  0  0  0  0
  6 22  2  0  0  0  0
  7 12  1  0  0  0  0
  8  9  1  0  0  0  0
  8 10  2  0  0  0  0
  8 16  1  0  0  0  0
  9 27  1  0  0  0  0
 10 28  1  0  0  0  0
 11 22  1  0  0  0  0
 11 24  1  0  0  0  0
 12 23  1  0  0  0  0
 12 25  2  0  0  0  0
 13 15  1  0  0  0  0
 13 23  1  0  0  0  0
 14 16  1  0  0  0  0
 14 23  1  0  0  0  0
 15 26  1  0  0  0  0
 16 26  1  0  0  0  0
 17 20  1  0  0  0  0
 18 24  1  0  0  0  0
 19 27  1  0  0  0  0
 20 21  1  0  0  0  0
 21 24  1  0  0  0  0
  1 29  1  0  0  0  0
  2 30  1  0  0  0  0
  3 31  1  0  0  0  0
  4 32  1  0  0  0  0
  5 33  1  0  0  0  0
  6 34  1  0  0  0  0
 13 35  1  0  0  0  0
 13 36  1  0  0  0  0
 14 37  1  0  0  0  0
 14 38  1  0  0  0  0
 15 39  1  0  0  0  0
 15 40  1  0  0  0  0
 16 41  1  0  0  0  0
 17 42  1  0  0  0  0
 17 43  1  0  0  0  0
 17 44  1  0  0  0  0
 18 45  1  0  0  0  0
 18 46  1  0  0  0  0
 18 47  1  0  0  0  0
 19 48  1  0  0  0  0
 19 49  1  0  0  0  0
 19 50  1  0  0  0  0
 20 51  1  0  0  0  0
 20 52  1  0  0  0  0
 21 53  1  0  0  0  0
 21 54  1  0  0  0  0
M  END
> <Chemgauss4 Score>
-5.698920249939

> <Number of Confs>
200

> <og_smiles_field>
CCCN(C)C1=CC=C(C(=O)N2CCOC(C3=C(Cl)C=CC=C3OC)C2)C=N1

$$$$

  -OEChem-03232314423D

 44 47  0     0  0  0  0  0  0999 V2000
   37.2929   34.2818   12.3562 C   0  0  0  0  0  0  0  0  0  0  0  0
   37.4545   33.4337   13.4517 C   0  0  0  0  0  0  0  0  0  0  0  0
   38.3764   34.5584   11.5224 C   0  0  0  0  0  0  0  0  0  0  0  0
   38.6997   32.8622   13.7135 C   0  0  0  0  0  0  0  0  0  0  0  0
   39.6216   33.9869   11.7842 C   0  0  0  0  0  0  0  0  0  0  0  0
   42.1834   33.6383   16.2786 C   0  0  0  0  0  0  0  0  0  0  0  0
   39.7833   33.1387   12.8797 C   0  0  0  0  0  0  0  0  0  0  0  0
   43.0826   34.4116   15.5201 C   0  0  0  0  0  0  0  0  0  0  0  0
   42.7981   34.0883   14.2159 C   0  0  0  0  0  0  0  0  0  0  0  0
   48.3340   36.7513   15.5575 C   0  0  0  0  0  0  0  0  0  0  0  0
   49.7849   38.1042   14.6700 C   0  0  0  0  0  0  0  0  0  0  0  0
   46.3832   35.5393   16.8604 C   0  0  0  0  0  0  0  0  0  0  0  0
   46.1970   35.3993   14.7957 C   0  0  0  0  0  0  0  0  0  0  0  0
   47.4320   35.5265   15.7212 C   0  0  0  0  0  0  0  0  0  0  0  0
   49.2575   36.0066   13.3471 C   0  0  0  0  0  0  0  0  0  0  0  0
   41.1269   32.5227   13.1617 C   0  0  0  0  0  0  0  0  0  0  0  0
   44.1172   35.3726   16.0304 C   0  0  0  0  0  0  0  0  0  0  0  0
   41.3872   32.8809   15.5194 N   0  0  0  0  0  0  0  0  0  0  0  0
   48.4052   37.7118   16.4324 N   0  0  0  0  0  0  0  0  0  0  0  0
   41.7851   33.1767   14.2703 N   0  0  0  0  0  0  0  0  0  0  0  0
   49.3118   38.5793   15.9002 N   0  0  0  0  0  0  0  0  0  0  0  0
   49.1262   36.9071   14.4756 N   0  0  0  0  0  0  0  0  0  0  0  0
   45.4640   34.8197   15.9466 N   0  0  0  0  0  0  0  0  0  0  0  0
   50.6036   38.6505   13.9453 O   0  0  0  0  0  0  0  0  0  0  0  0
   43.4507   34.5976   12.7367 Cl  0  0  0  0  0  0  0  0  0  0  0  0
   36.3230   34.7257   12.1517 H   0  0  0  0  0  0  0  0  0  0  0  0
   36.6107   33.2174   14.1003 H   0  0  0  0  0  0  0  0  0  0  0  0
   38.2507   35.2178   10.6687 H   0  0  0  0  0  0  0  0  0  0  0  0
   38.8164   32.2027   14.5694 H   0  0  0  0  0  0  0  0  0  0  0  0
   40.4602   34.2082   11.1292 H   0  0  0  0  0  0  0  0  0  0  0  0
   42.0731   33.5935   17.3529 H   0  0  0  0  0  0  0  0  0  0  0  0
   46.6649   34.9742   17.7542 H   0  0  0  0  0  0  0  0  0  0  0  0
   46.0686   36.5452   17.1680 H   0  0  0  0  0  0  0  0  0  0  0  0
   45.8203   36.3585   14.4172 H   0  0  0  0  0  0  0  0  0  0  0  0
   46.3219   34.7162   13.9499 H   0  0  0  0  0  0  0  0  0  0  0  0
   48.0364   34.6070   15.7288 H   0  0  0  0  0  0  0  0  0  0  0  0
   48.5252   36.2791   12.5728 H   0  0  0  0  0  0  0  0  0  0  0  0
   50.2739   36.0830   12.9335 H   0  0  0  0  0  0  0  0  0  0  0  0
   49.0732   34.9741   13.6788 H   0  0  0  0  0  0  0  0  0  0  0  0
   41.0315   31.4564   13.4000 H   0  0  0  0  0  0  0  0  0  0  0  0
   41.7843   32.5880   12.2861 H   0  0  0  0  0  0  0  0  0  0  0  0
   44.0981   36.3031   15.4527 H   0  0  0  0  0  0  0  0  0  0  0  0
   43.9276   35.6352   17.0765 H   0  0  0  0  0  0  0  0  0  0  0  0
   49.6028   39.4464   16.3335 H   0  0  0  0  0  0  0  0  0  0  0  0
  1  2  2  0  0  0  0
  1  3  1  0  0  0  0
  2  4  1  0  0  0  0
  3  5  2  0  0  0  0
  4  7  2  0  0  0  0
  5  7  1  0  0  0  0
  6  8  1  0  0  0  0
  6 18  2  0  0  0  0
  7 16  1  0  0  0  0
  8  9  2  0  0  0  0
  8 17  1  0  0  0  0
  9 20  1  0  0  0  0
  9 25  1  0  0  0  0
 10 14  1  0  0  0  0
 10 19  2  0  0  0  0
 10 22  1  0  0  0  0
 11 21  1  0  0  0  0
 11 22  1  0  0  0  0
 11 24  2  0  0  0  0
 12 14  1  0  0  0  0
 12 23  1  0  0  0  0
 13 14  1  0  0  0  0
 13 23  1  0  0  0  0
 15 22  1  0  0  0  0
 16 20  1  0  0  0  0
 17 23  1  0  0  0  0
 18 20  1  0  0  0  0
 19 21  1  0  0  0  0
  1 26  1  0  0  0  0
  2 27  1  0  0  0  0
  3 28  1  0  0  0  0
  4 29  1  0  0  0  0
  5 30  1  0  0  0  0
  6 31  1  0  0  0  0
 12 32  1  0  0  0  0
 12 33  1  0  0  0  0
 13 34  1  0  0  0  0
 13 35  1  0  0  0  0
 14 36  1  0  0  0  0
 15 37  1  0  0  0  0
 15 38  1  0  0  0  0
 15 39  1  0  0  0  0
 16 40  1  0  0  0  0
 16 41  1  0  0  0  0
 17 42  1  0  0  0  0
 17 43  1  0  0  0  0
 21 44  1  0  0  0  0
M  END
> <Chemgauss4 Score>
-6.192353248596

> <Number of Confs>
200

> <og_smiles_field>
CN1C(C2CN(CC3=C(Cl)N(CC4=CC=CC=C4)N=C3)C2)=NNC1=O

$$$$

  -OEChem-03232314423D

 41 43  0     1  0  0  0  0  0999 V2000
   47.0943   37.1084   18.9172 C   0  0  0  0  0  0  0  0  0  0  0  0
   48.3781   37.6363   18.7807 C   0  0  0  0  0  0  0  0  0  0  0  0
   46.4296   36.5940   17.8040 C   0  0  0  0  0  0  0  0  0  0  0  0
   48.9972   37.6501   17.5308 C   0  0  0  0  0  0  0  0  0  0  0  0
   45.0060   36.0743   15.2909 C   0  0  0  0  0  0  0  0  0  0  0  0
   47.0487   36.6077   16.5541 C   0  0  0  0  0  0  0  0  0  0  0  0
   48.3326   37.1358   16.4175 C   0  0  0  0  0  0  0  0  0  0  0  0
   44.8467   35.4604   14.0741 C   0  0  0  0  0  0  0  0  0  0  0  0
   41.1501   32.9231   13.9243 C   0  0  0  0  0  0  0  0  0  0  0  0
   38.2255   33.0356   11.4851 C   0  0  0  0  0  0  0  0  0  0  0  0
   39.7801   32.5615   13.4548 C   0  0  2  0  0  0  0  0  0  0  0  0
   39.0423   33.5513   12.5885 C   0  0  2  0  0  0  0  0  0  0  0  0
   38.6254   33.3020   13.9934 C   0  0  0  0  0  0  0  0  0  0  0  0
   43.5132   35.9113   11.9915 C   0  0  0  0  0  0  0  0  0  0  0  0
   43.4030   33.6220   13.1376 C   0  0  0  0  0  0  0  0  0  0  0  0
   43.5637   35.1448   13.3196 C   0  0  1  0  0  0  0  0  0  0  0  0
   46.0709   35.1307   13.5620 N   0  0  0  0  0  0  0  0  0  0  0  0
   46.9960   35.5232   14.4310 N   0  0  0  0  0  0  0  0  0  0  0  0
   46.3554   36.0886   15.4670 N   0  0  0  0  0  0  0  0  0  0  0  0
   42.0140   33.2376   12.9034 N   0  0  0  0  0  0  0  0  0  0  0  0
   41.3989   32.9172   15.1242 O   0  0  0  0  0  0  0  0  0  0  0  0
   37.0349   33.2619   11.3279 O   0  0  0  0  0  0  0  0  0  0  0  0
   38.9719   32.2653   10.6564 O   0  0  0  0  0  0  0  0  0  0  0  0
   37.4577   32.6296   14.2784 F   0  0  0  0  0  0  0  0  0  0  0  0
   38.7722   34.2848   14.9471 F   0  0  0  0  0  0  0  0  0  0  0  0
   49.1412   37.1775   14.8899 Cl  0  0  0  0  0  0  0  0  0  0  0  0
   46.6124   37.0987   19.8906 H   0  0  0  0  0  0  0  0  0  0  0  0
   48.8953   38.0372   19.6475 H   0  0  0  0  0  0  0  0  0  0  0  0
   45.4292   36.1859   17.9277 H   0  0  0  0  0  0  0  0  0  0  0  0
   49.9971   38.0671   17.4426 H   0  0  0  0  0  0  0  0  0  0  0  0
   44.3067   36.4802   16.0095 H   0  0  0  0  0  0  0  0  0  0  0  0
   39.6638   31.5109   13.2611 H   0  0  0  0  0  0  0  0  0  0  0  0
   39.5148   34.5072   12.3876 H   0  0  0  0  0  0  0  0  0  0  0  0
   44.3308   35.6093   11.3292 H   0  0  0  0  0  0  0  0  0  0  0  0
   43.5888   36.9935   12.1432 H   0  0  0  0  0  0  0  0  0  0  0  0
   42.5744   35.7138   11.4614 H   0  0  0  0  0  0  0  0  0  0  0  0
   44.0164   33.2603   12.3041 H   0  0  0  0  0  0  0  0  0  0  0  0
   43.7520   33.1041   14.0391 H   0  0  0  0  0  0  0  0  0  0  0  0
   42.7180   35.5009   13.9247 H   0  0  0  0  0  0  0  0  0  0  0  0
   41.6752   33.2015   11.9538 H   0  0  0  0  0  0  0  0  0  0  0  0
   38.4422   31.9087    9.9116 H   0  0  0  0  0  0  0  0  0  0  0  0
  1  2  2  0  0  0  0
  1  3  1  0  0  0  0
  2  4  1  0  0  0  0
  3  6  2  0  0  0  0
  4  7  2  0  0  0  0
  5  8  2  0  0  0  0
  5 19  1  0  0  0  0
  6  7  1  0  0  0  0
  6 19  1  0  0  0  0
  7 26  1  0  0  0  0
  8 16  1  0  0  0  0
  8 17  1  0  0  0  0
  9 11  1  0  0  0  0
  9 20  1  0  0  0  0
  9 21  2  0  0  0  0
 10 12  1  0  0  0  0
 10 22  2  0  0  0  0
 10 23  1  0  0  0  0
 11 12  1  0  0  0  0
 11 13  1  0  0  0  0
 12 13  1  0  0  0  0
 13 24  1  0  0  0  0
 13 25  1  0  0  0  0
 14 16  1  0  0  0  0
 15 16  1  0  0  0  0
 15 20  1  0  0  0  0
 17 18  2  0  0  0  0
 18 19  1  0  0  0  0
  1 27  1  0  0  0  0
  2 28  1  0  0  0  0
  3 29  1  0  0  0  0
  4 30  1  0  0  0  0
  5 31  1  0  0  0  0
 11 32  1  0  0  0  0
 12 33  1  0  0  0  0
 14 34  1  0  0  0  0
 14 35  1  0  0  0  0
 14 36  1  0  0  0  0
 15 37  1  0  0  0  0
 15 38  1  0  0  0  0
 16 39  1  0  0  0  0
 20 40  1  0  0  0  0
 23 41  1  0  0  0  0
M  END
> <Chemgauss4 Score>
-7.220772266388

> <Number of Confs>
200

> <og_smiles_field>
CC(CNC(=O)[C@@H]1[C@@H](C(=O)O)C1(F)F)C1=CN(C2=CC=CC=C2Cl)N=N1

$$$$

  -OEChem-03232314423D

 57 59  0     1  0  0  0  0  0999 V2000
   46.9790   37.8483   17.4844 C   0  0  0  0  0  0  0  0  0  0  0  0
   47.6555   39.0698   17.5797 C   0  0  0  0  0  0  0  0  0  0  0  0
   48.7228   38.7076   15.4270 C   0  0  0  0  0  0  0  0  0  0  0  0
   47.2243   35.4914   14.7013 C   0  0  0  0  0  0  0  0  0  0  0  0
   47.1742   37.0416   16.3457 C   0  0  0  0  0  0  0  0  0  0  0  0
   46.6672   35.7800   15.9258 C   0  0  0  0  0  0  0  0  0  0  0  0
   48.5135   39.4909   16.5656 C   0  0  0  0  0  0  0  0  0  0  0  0
   48.0398   37.4889   15.3453 C   0  0  0  0  0  0  0  0  0  0  0  0
   45.7196   34.9015   16.6300 C   0  0  0  0  0  0  0  0  0  0  0  0
   42.0218   33.3394   12.8070 C   0  0  0  0  0  0  0  0  0  0  0  0
   44.0885   35.0520   14.6704 C   0  0  0  0  0  0  0  0  0  0  0  0
   43.4955   33.8051   16.6413 C   0  0  0  0  0  0  0  0  0  0  0  0
   42.5852   34.8078   14.6784 C   0  0  2  0  0  0  0  0  0  0  0  0
   42.4397   33.5718   15.5668 C   0  0  2  0  0  0  0  0  0  0  0  0
   49.2216   40.7991   16.6951 C   0  0  0  0  0  0  0  0  0  0  0  0
   42.4920   32.4691    9.9365 C   0  0  0  0  0  0  0  0  0  0  0  0
   41.6449   35.8560   12.6854 C   0  0  0  0  0  0  0  0  0  0  0  0
   37.8361   33.0990   13.9620 C   0  0  0  0  0  0  0  0  0  0  0  0
   41.3182   31.9749   10.7737 C   0  0  0  0  0  0  0  0  0  0  0  0
   39.6778   32.4822   12.6390 C   0  0  0  0  0  0  0  0  0  0  0  0
   40.8790   33.0041   11.8359 C   0  0  1  0  0  0  0  0  0  0  0  0
   48.0509   36.5279   14.3597 N   0  0  0  0  0  0  0  0  0  0  0  0
   44.5261   34.6016   15.9913 N   0  0  0  0  0  0  0  0  0  0  0  0
   42.0469   34.6241   13.3607 N   0  0  0  0  0  0  0  0  0  0  0  0
   46.0449   34.4980   17.7449 O   0  0  0  0  0  0  0  0  0  0  0  0
   42.8591   32.4745   13.0865 O   0  0  0  0  0  0  0  0  0  0  0  0
   41.1417   33.5064   16.1254 O   0  0  0  0  0  0  0  0  0  0  0  0
   38.9586   33.5615   13.2243 O   0  0  0  0  0  0  0  0  0  0  0  0
   46.3135   37.5340   18.2834 H   0  0  0  0  0  0  0  0  0  0  0  0
   47.5024   39.6898   18.4600 H   0  0  0  0  0  0  0  0  0  0  0  0
   49.3896   39.0294   14.6333 H   0  0  0  0  0  0  0  0  0  0  0  0
   47.1089   34.6431   14.0407 H   0  0  0  0  0  0  0  0  0  0  0  0
   44.6083   34.4362   13.9271 H   0  0  0  0  0  0  0  0  0  0  0  0
   44.3443   36.1034   14.5087 H   0  0  0  0  0  0  0  0  0  0  0  0
   43.1073   34.3700   17.4967 H   0  0  0  0  0  0  0  0  0  0  0  0
   43.9205   32.8702   17.0211 H   0  0  0  0  0  0  0  0  0  0  0  0
   42.0593   35.6614   15.1294 H   0  0  0  0  0  0  0  0  0  0  0  0
   42.6516   32.6466   15.0170 H   0  0  0  0  0  0  0  0  0  0  0  0
   50.1868   40.6610   17.1964 H   0  0  0  0  0  0  0  0  0  0  0  0
   49.4003   41.2525   15.7122 H   0  0  0  0  0  0  0  0  0  0  0  0
   48.6267   41.5166   17.2740 H   0  0  0  0  0  0  0  0  0  0  0  0
   42.2409   33.4245    9.4649 H   0  0  0  0  0  0  0  0  0  0  0  0
   43.3795   32.6231   10.5587 H   0  0  0  0  0  0  0  0  0  0  0  0
   42.7474   31.7604    9.1431 H   0  0  0  0  0  0  0  0  0  0  0  0
   40.5737   36.0369   12.8583 H   0  0  0  0  0  0  0  0  0  0  0  0
   42.2280   36.6994   13.0837 H   0  0  0  0  0  0  0  0  0  0  0  0
   41.8306   35.7594   11.6055 H   0  0  0  0  0  0  0  0  0  0  0  0
   37.3084   33.9516   14.3965 H   0  0  0  0  0  0  0  0  0  0  0  0
   38.1719   32.4233   14.7527 H   0  0  0  0  0  0  0  0  0  0  0  0
   37.1642   32.5626   13.2879 H   0  0  0  0  0  0  0  0  0  0  0  0
   41.5907   31.0187   11.2360 H   0  0  0  0  0  0  0  0  0  0  0  0
   40.4787   31.7725   10.0971 H   0  0  0  0  0  0  0  0  0  0  0  0
   40.0220   31.8270   13.4463 H   0  0  0  0  0  0  0  0  0  0  0  0
   38.9821   31.9185   12.0101 H   0  0  0  0  0  0  0  0  0  0  0  0
   40.5842   33.9119   11.2997 H   0  0  0  0  0  0  0  0  0  0  0  0
   48.5914   36.5807   13.5073 H   0  0  0  0  0  0  0  0  0  0  0  0
   41.1378   32.7656   16.7559 H   0  0  0  0  0  0  0  0  0  0  0  0
  1  2  1  0  0  0  0
  1  5  2  0  0  0  0
  2  7  2  0  0  0  0
  3  7  1  0  0  0  0
  3  8  2  0  0  0  0
  4  6  2  0  0  0  0
  4 22  1  0  0  0  0
  5  6  1  0  0  0  0
  5  8  1  0  0  0  0
  6  9  1  0  0  0  0
  7 15  1  0  0  0  0
  8 22  1  0  0  0  0
  9 23  1  0  0  0  0
  9 25  2  0  0  0  0
 10 21  1  0  0  0  0
 10 24  1  0  0  0  0
 10 26  2  0  0  0  0
 11 13  1  0  0  0  0
 11 23  1  0  0  0  0
 12 14  1  0  0  0  0
 12 23  1  0  0  0  0
 13 14  1  0  0  0  0
 13 24  1  0  0  0  0
 14 27  1  0  0  0  0
 16 19  1  0  0  0  0
 17 24  1  0  0  0  0
 18 28  1  0  0  0  0
 19 21  1  0  0  0  0
 20 21  1  0  0  0  0
 20 28  1  0  0  0  0
  1 29  1  0  0  0  0
  2 30  1  0  0  0  0
  3 31  1  0  0  0  0
  4 32  1  0  0  0  0
 11 33  1  0  0  0  0
 11 34  1  0  0  0  0
 12 35  1  0  0  0  0
 12 36  1  0  0  0  0
 13 37  1  0  0  0  0
 14 38  1  0  0  0  0
 15 39  1  0  0  0  0
 15 40  1  0  0  0  0
 15 41  1  0  0  0  0
 16 42  1  0  0  0  0
 16 43  1  0  0  0  0
 16 44  1  0  0  0  0
 17 45  1  0  0  0  0
 17 46  1  0  0  0  0
 17 47  1  0  0  0  0
 18 48  1  0  0  0  0
 18 49  1  0  0  0  0
 18 50  1  0  0  0  0
 19 51  1  0  0  0  0
 19 52  1  0  0  0  0
 20 53  1  0  0  0  0
 20 54  1  0  0  0  0
 21 55  1  0  0  0  0
 22 56  1  0  0  0  0
 27 57  1  0  0  0  0
M  END
> <Chemgauss4 Score>
-7.176635742188

> <Number of Confs>
200

> <og_smiles_field>
CCC(COC)C(=O)N(C)[C@@H]1CN(C(=O)C2=CNC3=CC(C)=CC=C23)C[C@H]1O

$$$$

  -OEChem-03232314423D

 54 56  0     1  0  0  0  0  0999 V2000
   41.9072   34.9044   14.5745 C   0  0  0  0  0  0  0  0  0  0  0  0
   42.5526   34.3603   15.6849 C   0  0  0  0  0  0  0  0  0  0  0  0
   43.9977   35.8561   13.8256 C   0  0  0  0  0  0  0  0  0  0  0  0
   42.6297   35.6522   13.6448 C   0  0  0  0  0  0  0  0  0  0  0  0
   44.6432   35.3120   14.9361 C   0  0  0  0  0  0  0  0  0  0  0  0
   43.9206   34.5641   15.8657 C   0  0  0  0  0  0  0  0  0  0  0  0
   41.9569   36.2194   12.4868 C   0  0  0  0  0  0  0  0  0  0  0  0
   46.7616   36.6388   14.6599 C   0  0  0  0  0  0  0  0  0  0  0  0
   48.0922   37.5775   17.3072 C   0  0  0  0  0  0  0  0  0  0  0  0
   48.5309   36.3646   16.4835 C   0  0  0  0  0  0  0  0  0  0  0  0
   50.5181   37.7409   14.5532 C   0  0  0  0  0  0  0  0  0  0  0  0
   49.0306   35.7002   14.0275 C   0  0  0  0  0  0  0  0  0  0  0  0
   48.5265   38.9425   16.7656 C   0  0  0  0  0  0  0  0  0  0  0  0
   50.4158   39.1121   15.2218 C   0  0  0  0  0  0  0  0  0  0  0  0
   49.1998   37.1920   14.0946 C   0  0  1  0  0  0  0  0  0  0  0  0
   48.1971   36.4995   15.0124 C   0  0  1  0  0  0  0  0  0  0  0  0
   42.9099   33.8916    9.7604 C   0  0  0  0  0  0  0  0  0  0  0  0
   41.4382   33.0977   11.6445 C   0  0  0  0  0  0  0  0  0  0  0  0
   41.2088   35.9524   10.1098 C   0  0  0  0  0  0  0  0  0  0  0  0
   42.4665   34.1263   11.1972 C   0  0  0  0  0  0  0  0  0  0  0  0
   49.9779   39.0600   16.6216 N   0  0  0  0  0  0  0  0  0  0  0  0
   46.0316   35.5379   15.0896 N   0  0  0  0  0  0  0  0  0  0  0  0
   41.8793   35.4601   11.3049 N   0  0  0  0  0  0  0  0  0  0  0  0
   41.4728   37.3515   12.6173 O   0  0  0  0  0  0  0  0  0  0  0  0
   46.3539   37.6326   14.0674 O   0  0  0  0  0  0  0  0  0  0  0  0
   44.6798   33.8729   17.2552 Cl  0  0  0  0  0  0  0  0  0  0  0  0
   40.8407   34.7395   14.4432 H   0  0  0  0  0  0  0  0  0  0  0  0
   41.9742   33.7792   16.3988 H   0  0  0  0  0  0  0  0  0  0  0  0
   44.5597   36.4400   13.0993 H   0  0  0  0  0  0  0  0  0  0  0  0
   46.9974   37.5797   17.3850 H   0  0  0  0  0  0  0  0  0  0  0  0
   48.4673   37.4550   18.3313 H   0  0  0  0  0  0  0  0  0  0  0  0
   49.5996   36.1820   16.6413 H   0  0  0  0  0  0  0  0  0  0  0  0
   48.0228   35.4740   16.8752 H   0  0  0  0  0  0  0  0  0  0  0  0
   51.1503   37.8465   13.6619 H   0  0  0  0  0  0  0  0  0  0  0  0
   51.0530   37.0410   15.2061 H   0  0  0  0  0  0  0  0  0  0  0  0
   48.5467   35.2918   13.1471 H   0  0  0  0  0  0  0  0  0  0  0  0
   49.8192   35.0667   14.4173 H   0  0  0  0  0  0  0  0  0  0  0  0
   47.9907   39.1874   15.8412 H   0  0  0  0  0  0  0  0  0  0  0  0
   48.1991   39.6980   17.4915 H   0  0  0  0  0  0  0  0  0  0  0  0
   51.4272   39.5377   15.2297 H   0  0  0  0  0  0  0  0  0  0  0  0
   49.8013   39.8044   14.6335 H   0  0  0  0  0  0  0  0  0  0  0  0
   48.8010   37.7731   13.2688 H   0  0  0  0  0  0  0  0  0  0  0  0
   42.0550   33.9286    9.0775 H   0  0  0  0  0  0  0  0  0  0  0  0
   43.6371   34.6453    9.4381 H   0  0  0  0  0  0  0  0  0  0  0  0
   43.3853   32.9102    9.6559 H   0  0  0  0  0  0  0  0  0  0  0  0
   40.5574   33.1208   10.9935 H   0  0  0  0  0  0  0  0  0  0  0  0
   41.1077   33.2969   12.6692 H   0  0  0  0  0  0  0  0  0  0  0  0
   41.8468   32.0816   11.6092 H   0  0  0  0  0  0  0  0  0  0  0  0
   41.9302   36.4950    9.4812 H   0  0  0  0  0  0  0  0  0  0  0  0
   40.7962   35.1034    9.5450 H   0  0  0  0  0  0  0  0  0  0  0  0
   40.3929   36.6306   10.4004 H   0  0  0  0  0  0  0  0  0  0  0  0
   43.3366   34.0850   11.8614 H   0  0  0  0  0  0  0  0  0  0  0  0
   50.2686   39.9311   17.0678 H   0  0  0  0  0  0  0  0  0  0  0  0
   46.5422   34.8017   15.5729 H   0  0  0  0  0  0  0  0  0  0  0  0
  1  2  1  0  0  0  0
  1  4  2  0  0  0  0
  2  6  2  0  0  0  0
  3  4  1  0  0  0  0
  3  5  2  0  0  0  0
  4  7  1  0  0  0  0
  5  6  1  0  0  0  0
  5 22  1  0  0  0  0
  6 26  1  0  0  0  0
  7 23  1  0  0  0  0
  7 24  2  0  0  0  0
  8 16  1  0  0  0  0
  8 22  1  0  0  0  0
  8 25  2  0  0  0  0
  9 10  1  0  0  0  0
  9 13  1  0  0  0  0
 10 16  1  0  0  0  0
 11 14  1  0  0  0  0
 11 15  1  0  0  0  0
 12 15  1  0  0  0  0
 12 16  1  0  0  0  0
 13 21  1  0  0  0  0
 14 21  1  0  0  0  0
 15 16  1  0  0  0  0
 17 20  1  0  0  0  0
 18 20  1  0  0  0  0
 19 23  1  0  0  0  0
 20 23  1  0  0  0  0
  1 27  1  0  0  0  0
  2 28  1  0  0  0  0
  3 29  1  0  0  0  0
  9 30  1  0  0  0  0
  9 31  1  0  0  0  0
 10 32  1  0  0  0  0
 10 33  1  0  0  0  0
 11 34  1  0  0  0  0
 11 35  1  0  0  0  0
 12 36  1  0  0  0  0
 12 37  1  0  0  0  0
 13 38  1  0  0  0  0
 13 39  1  0  0  0  0
 14 40  1  0  0  0  0
 14 41  1  0  0  0  0
 15 42  1  0  0  0  0
 17 43  1  0  0  0  0
 17 44  1  0  0  0  0
 17 45  1  0  0  0  0
 18 46  1  0  0  0  0
 18 47  1  0  0  0  0
 18 48  1  0  0  0  0
 19 49  1  0  0  0  0
 19 50  1  0  0  0  0
 19 51  1  0  0  0  0
 20 52  1  0  0  0  0
 21 53  1  0  0  0  0
 22 54  1  0  0  0  0
M  END
> <Chemgauss4 Score>
-5.078176498413

> <Number of Confs>
33

> <og_smiles_field>
CC(C)N(C)C(=O)C1=CC=C(Cl)C(NC(=O)C23CCCNCCC2C3)=C1

$$$$

  -OEChem-03232314423D

 47 49  0     1  0  0  0  0  0999 V2000
   47.5038   38.1634   15.5836 C   0  0  0  0  0  0  0  0  0  0  0  0
   49.3233   36.6037   15.2777 C   0  0  0  0  0  0  0  0  0  0  0  0
   48.3141   39.1997   15.1197 C   0  0  0  0  0  0  0  0  0  0  0  0
   50.1336   37.6399   14.8137 C   0  0  0  0  0  0  0  0  0  0  0  0
   42.2532   32.8433   15.2840 C   0  0  0  0  0  0  0  0  0  0  0  0
   42.1603   34.8094   15.9791 C   0  0  0  0  0  0  0  0  0  0  0  0
   48.0085   36.8654   15.6626 C   0  0  0  0  0  0  0  0  0  0  0  0
   49.6290   38.9379   14.7347 C   0  0  0  0  0  0  0  0  0  0  0  0
   45.2969   35.5188   14.5132 C   0  0  0  0  0  0  0  0  0  0  0  0
   47.2111   37.0197   19.8769 C   0  0  0  0  0  0  0  0  0  0  0  0
   47.7662   37.8935   18.7869 C   0  0  0  0  0  0  0  0  0  0  0  0
   46.7830   36.8064   18.4514 C   0  0  0  0  0  0  0  0  0  0  0  0
   41.9434   36.3517   12.6383 C   0  0  0  0  0  0  0  0  0  0  0  0
   44.2356   37.2481   12.2575 C   0  0  0  0  0  0  0  0  0  0  0  0
   47.2393   35.5680   17.6897 C   0  0  0  0  0  0  0  0  0  0  0  0
   47.1281   35.7390   16.1650 C   0  0  1  0  0  0  0  0  0  0  0  0
   43.8052   35.8116   14.3143 C   0  0  1  0  0  0  0  0  0  0  0  0
   43.4394   36.0633   12.8238 C   0  0  0  0  0  0  0  0  0  0  0  0
   41.6549   33.6243   16.2311 N   0  0  0  0  0  0  0  0  0  0  0  0
   43.0970   33.4707   14.4619 N   0  0  0  0  0  0  0  0  0  0  0  0
   43.0193   34.7265   14.9279 N   0  0  0  0  0  0  0  0  0  0  0  0
   45.7606   35.9415   15.7508 N   0  0  0  0  0  0  0  0  0  0  0  0
   45.9826   34.9460   13.6688 O   0  0  0  0  0  0  0  0  0  0  0  0
   50.6282   40.2164   14.1622 Cl  0  0  0  0  0  0  0  0  0  0  0  0
   46.4804   38.3754   15.8818 H   0  0  0  0  0  0  0  0  0  0  0  0
   49.7241   35.5951   15.3360 H   0  0  0  0  0  0  0  0  0  0  0  0
   47.9071   40.2060   15.0632 H   0  0  0  0  0  0  0  0  0  0  0  0
   51.1562   37.4211   14.5173 H   0  0  0  0  0  0  0  0  0  0  0  0
   42.0673   31.7840   15.1886 H   0  0  0  0  0  0  0  0  0  0  0  0
   41.9447   35.7284   16.5056 H   0  0  0  0  0  0  0  0  0  0  0  0
   47.8778   36.2977   20.3321 H   0  0  0  0  0  0  0  0  0  0  0  0
   46.4929   37.4589   20.5584 H   0  0  0  0  0  0  0  0  0  0  0  0
   47.4199   38.9185   18.7370 H   0  0  0  0  0  0  0  0  0  0  0  0
   48.8047   37.7569   18.5120 H   0  0  0  0  0  0  0  0  0  0  0  0
   45.7777   37.1041   18.1789 H   0  0  0  0  0  0  0  0  0  0  0  0
   41.6427   37.2306   13.2191 H   0  0  0  0  0  0  0  0  0  0  0  0
   41.3330   35.5045   12.9689 H   0  0  0  0  0  0  0  0  0  0  0  0
   41.7000   36.5603   11.5922 H   0  0  0  0  0  0  0  0  0  0  0  0
   44.0235   38.1626   12.8222 H   0  0  0  0  0  0  0  0  0  0  0  0
   45.3137   37.0617   12.3110 H   0  0  0  0  0  0  0  0  0  0  0  0
   43.9781   37.4460   11.2129 H   0  0  0  0  0  0  0  0  0  0  0  0
   48.2722   35.3389   17.9806 H   0  0  0  0  0  0  0  0  0  0  0  0
   46.6234   34.7187   18.0120 H   0  0  0  0  0  0  0  0  0  0  0  0
   47.4395   34.8019   15.6871 H   0  0  0  0  0  0  0  0  0  0  0  0
   43.5681   36.7281   14.8725 H   0  0  0  0  0  0  0  0  0  0  0  0
   43.6883   35.1782   12.2244 H   0  0  0  0  0  0  0  0  0  0  0  0
   45.1299   36.4124   16.3926 H   0  0  0  0  0  0  0  0  0  0  0  0
  1  3  1  0  0  0  0
  1  7  2  0  0  0  0
  2  4  2  0  0  0  0
  2  7  1  0  0  0  0
  3  8  2  0  0  0  0
  4  8  1  0  0  0  0
  5 19  1  0  0  0  0
  5 20  2  0  0  0  0
  6 19  2  0  0  0  0
  6 21  1  0  0  0  0
  7 16  1  0  0  0  0
  8 24  1  0  0  0  0
  9 17  1  0  0  0  0
  9 22  1  0  0  0  0
  9 23  2  0  0  0  0
 10 11  1  0  0  0  0
 10 12  1  0  0  0  0
 11 12  1  0  0  0  0
 12 15  1  0  0  0  0
 13 18  1  0  0  0  0
 14 18  1  0  0  0  0
 15 16  1  0  0  0  0
 16 22  1  0  0  0  0
 17 18  1  0  0  0  0
 17 21  1  0  0  0  0
 20 21  1  0  0  0  0
  1 25  1  0  0  0  0
  2 26  1  0  0  0  0
  3 27  1  0  0  0  0
  4 28  1  0  0  0  0
  5 29  1  0  0  0  0
  6 30  1  0  0  0  0
 10 31  1  0  0  0  0
 10 32  1  0  0  0  0
 11 33  1  0  0  0  0
 11 34  1  0  0  0  0
 12 35  1  0  0  0  0
 13 36  1  0  0  0  0
 13 37  1  0  0  0  0
 13 38  1  0  0  0  0
 14 39  1  0  0  0  0
 14 40  1  0  0  0  0
 14 41  1  0  0  0  0
 15 42  1  0  0  0  0
 15 43  1  0  0  0  0
 16 44  1  0  0  0  0
 17 45  1  0  0  0  0
 18 46  1  0  0  0  0
 22 47  1  0  0  0  0
M  END
> <Chemgauss4 Score>
-5.569253921509

> <Number of Confs>
200

> <og_smiles_field>
CC(C)C(C(=O)NC(CC1CC1)C1=CC=C(Cl)C=C1)N1C=NC=N1

$$$$

  -OEChem-03232314423D

 44 46  0     0  0  0  0  0  0999 V2000
   49.4138   37.4982   16.6292 C   0  0  0  0  0  0  0  0  0  0  0  0
   47.7142   39.0836   17.2887 C   0  0  0  0  0  0  0  0  0  0  0  0
   50.3669   38.5166   16.6375 C   0  0  0  0  0  0  0  0  0  0  0  0
   48.6673   40.1020   17.2970 C   0  0  0  0  0  0  0  0  0  0  0  0
   40.8282   33.5024   14.4805 C   0  0  0  0  0  0  0  0  0  0  0  0
   41.2292   34.6887   13.9007 C   0  0  0  0  0  0  0  0  0  0  0  0
   48.0874   37.7817   16.9548 C   0  0  0  0  0  0  0  0  0  0  0  0
   49.9937   39.8185   16.9714 C   0  0  0  0  0  0  0  0  0  0  0  0
   42.0795   35.4667   14.6596 C   0  0  0  0  0  0  0  0  0  0  0  0
   42.0501   33.9427   16.3460 C   0  0  0  0  0  0  0  0  0  0  0  0
   46.5868   36.3115   15.5614 C   0  0  0  0  0  0  0  0  0  0  0  0
   45.2705   36.2784   13.9237 C   0  0  0  0  0  0  0  0  0  0  0  0
   40.7694   35.0664   12.5753 C   0  0  0  0  0  0  0  0  0  0  0  0
   42.5059   33.5286   17.7040 C   0  0  0  0  0  0  0  0  0  0  0  0
   41.8304   35.2183    9.5980 C   0  0  0  0  0  0  0  0  0  0  0  0
   47.0680   36.6933   16.9468 C   0  0  0  0  0  0  0  0  0  0  0  0
   42.5842   36.7816   14.1323 C   0  0  0  0  0  0  0  0  0  0  0  0
   40.7471   34.4104   10.2803 C   0  0  0  0  0  0  0  0  0  0  0  0
   41.2207   33.0967   15.7059 N   0  0  0  0  0  0  0  0  0  0  0  0
   42.5115   35.1232   15.8908 N   0  0  0  0  0  0  0  0  0  0  0  0
   47.1623   35.5592   14.6528 N   0  0  0  0  0  0  0  0  0  0  0  0
   46.2964   35.5375   13.5754 N   0  0  0  0  0  0  0  0  0  0  0  0
   40.1211   36.0918   12.3231 O   0  0  0  0  0  0  0  0  0  0  0  0
   45.3799   36.8069   15.1732 O   0  0  0  0  0  0  0  0  0  0  0  0
   41.1419   34.1480   11.6312 O   0  0  0  0  0  0  0  0  0  0  0  0
   50.9094   40.7960   16.9820 F   0  0  0  0  0  0  0  0  0  0  0  0
   43.8962   36.5660   12.8984 S   0  0  0  0  0  0  0  0  0  0  0  0
   49.7140   36.4871   16.3669 H   0  0  0  0  0  0  0  0  0  0  0  0
   46.6831   39.3138   17.5440 H   0  0  0  0  0  0  0  0  0  0  0  0
   51.3996   38.2960   16.3847 H   0  0  0  0  0  0  0  0  0  0  0  0
   48.3770   41.1157   17.5565 H   0  0  0  0  0  0  0  0  0  0  0  0
   40.1599   32.8178   13.9673 H   0  0  0  0  0  0  0  0  0  0  0  0
   43.4320   32.9447   17.6348 H   0  0  0  0  0  0  0  0  0  0  0  0
   42.6913   34.4000   18.3454 H   0  0  0  0  0  0  0  0  0  0  0  0
   41.7467   32.9178   18.2102 H   0  0  0  0  0  0  0  0  0  0  0  0
   41.9848   36.1732   10.1081 H   0  0  0  0  0  0  0  0  0  0  0  0
   42.7756   34.6658    9.5881 H   0  0  0  0  0  0  0  0  0  0  0  0
   41.5655   35.4145    8.5537 H   0  0  0  0  0  0  0  0  0  0  0  0
   47.4609   35.7916   17.4491 H   0  0  0  0  0  0  0  0  0  0  0  0
   46.1955   36.9754   17.5622 H   0  0  0  0  0  0  0  0  0  0  0  0
   41.7632   37.3494   13.6805 H   0  0  0  0  0  0  0  0  0  0  0  0
   42.9714   37.3933   14.9547 H   0  0  0  0  0  0  0  0  0  0  0  0
   40.5976   33.4567    9.7652 H   0  0  0  0  0  0  0  0  0  0  0  0
   39.8036   34.9642   10.2900 H   0  0  0  0  0  0  0  0  0  0  0  0
  1  3  1  0  0  0  0
  1  7  2  0  0  0  0
  2  4  2  0  0  0  0
  2  7  1  0  0  0  0
  3  8  2  0  0  0  0
  4  8  1  0  0  0  0
  5  6  2  0  0  0  0
  5 19  1  0  0  0  0
  6  9  1  0  0  0  0
  6 13  1  0  0  0  0
  7 16  1  0  0  0  0
  8 26  1  0  0  0  0
  9 17  1  0  0  0  0
  9 20  2  0  0  0  0
 10 14  1  0  0  0  0
 10 19  2  0  0  0  0
 10 20  1  0  0  0  0
 11 16  1  0  0  0  0
 11 21  2  0  0  0  0
 11 24  1  0  0  0  0
 12 22  2  0  0  0  0
 12 24  1  0  0  0  0
 12 27  1  0  0  0  0
 13 23  2  0  0  0  0
 13 25  1  0  0  0  0
 15 18  1  0  0  0  0
 17 27  1  0  0  0  0
 18 25  1  0  0  0  0
 21 22  1  0  0  0  0
  1 28  1  0  0  0  0
  2 29  1  0  0  0  0
  3 30  1  0  0  0  0
  4 31  1  0  0  0  0
  5 32  1  0  0  0  0
 14 33  1  0  0  0  0
 14 34  1  0  0  0  0
 14 35  1  0  0  0  0
 15 36  1  0  0  0  0
 15 37  1  0  0  0  0
 15 38  1  0  0  0  0
 16 39  1  0  0  0  0
 16 40  1  0  0  0  0
 17 41  1  0  0  0  0
 17 42  1  0  0  0  0
 18 43  1  0  0  0  0
 18 44  1  0  0  0  0
M  END
> <Chemgauss4 Score>
-5.426903724670

> <Number of Confs>
200

> <og_smiles_field>
CCOC(=O)C1=CN=C(C)N=C1CSC1=NN=C(CC2=CC=C(F)C=C2)O1

$$$$

  -OEChem-03232314423D

 52 55  0     1  0  0  0  0  0999 V2000
   49.1428   43.4818   15.9139 C   0  0  0  0  0  0  0  0  0  0  0  0
   49.2898   42.1375   15.5906 C   0  0  0  0  0  0  0  0  0  0  0  0
   42.1480   32.8418   13.1223 C   0  0  0  0  0  0  0  0  0  0  0  0
   48.1988   43.8193   16.8704 C   0  0  0  0  0  0  0  0  0  0  0  0
   47.5845   41.6255   17.1673 C   0  0  0  0  0  0  0  0  0  0  0  0
   41.6953   32.6848   11.8308 C   0  0  0  0  0  0  0  0  0  0  0  0
   42.1869   35.0364   12.3579 C   0  0  0  0  0  0  0  0  0  0  0  0
   42.4327   34.2041   13.4278 C   0  0  0  0  0  0  0  0  0  0  0  0
   48.4995   41.1852   16.2246 C   0  0  0  0  0  0  0  0  0  0  0  0
   47.5215   38.9119   16.0147 C   0  0  0  0  0  0  0  0  0  0  0  0
   46.0270   35.8211   16.5327 C   0  0  0  0  0  0  0  0  0  0  0  0
   50.1986   37.8651   15.4323 C   0  0  0  0  0  0  0  0  0  0  0  0
   48.9817   37.0436   15.0658 C   0  0  0  0  0  0  0  0  0  0  0  0
   49.8844   39.3431   15.2727 C   0  0  0  0  0  0  0  0  0  0  0  0
   44.3046   35.3836   14.6956 C   0  0  0  0  0  0  0  0  0  0  0  0
   44.1093   34.2592   16.8165 C   0  0  0  0  0  0  0  0  0  0  0  0
   42.9445   34.6774   14.7670 C   0  0  2  0  0  0  0  0  0  0  0  0
   47.8490   37.4183   15.9999 C   0  0  2  0  0  0  0  0  0  0  0  0
   43.1933   33.5659   15.8080 C   0  0  2  0  0  0  0  0  0  0  0  0
   41.9184   33.0333   16.4451 C   0  0  0  0  0  0  0  0  0  0  0  0
   47.4130   42.9226   17.5076 N   0  0  0  0  0  0  0  0  0  0  0  0
   48.6289   39.7785   15.9094 N   0  0  0  0  0  0  0  0  0  0  0  0
   44.8857   35.2037   16.0251 N   0  0  0  0  0  0  0  0  0  0  0  0
   46.6537   36.6926   15.6492 N   0  0  0  0  0  0  0  0  0  0  0  0
   46.3570   39.2783   16.1963 O   0  0  0  0  0  0  0  0  0  0  0  0
   46.4479   35.6088   17.6733 O   0  0  0  0  0  0  0  0  0  0  0  0
   41.0087   34.1076   16.6089 O   0  0  0  0  0  0  0  0  0  0  0  0
   41.6150   34.1758   10.9924 S   0  0  0  0  0  0  0  0  0  0  0  0
   49.7481   44.2413   15.4324 H   0  0  0  0  0  0  0  0  0  0  0  0
   50.0225   41.8432   14.8438 H   0  0  0  0  0  0  0  0  0  0  0  0
   42.2682   32.0157   13.8118 H   0  0  0  0  0  0  0  0  0  0  0  0
   48.0451   44.8543   17.1572 H   0  0  0  0  0  0  0  0  0  0  0  0
   46.9396   40.9298   17.6959 H   0  0  0  0  0  0  0  0  0  0  0  0
   41.4085   31.7659   11.3392 H   0  0  0  0  0  0  0  0  0  0  0  0
   42.3155   36.1088   12.3082 H   0  0  0  0  0  0  0  0  0  0  0  0
   50.5041   37.6567   16.4650 H   0  0  0  0  0  0  0  0  0  0  0  0
   51.0422   37.5955   14.7870 H   0  0  0  0  0  0  0  0  0  0  0  0
   48.7060   37.2348   14.0209 H   0  0  0  0  0  0  0  0  0  0  0  0
   49.2161   35.9764   15.1554 H   0  0  0  0  0  0  0  0  0  0  0  0
   50.7084   39.9393   15.6827 H   0  0  0  0  0  0  0  0  0  0  0  0
   49.7951   39.5828   14.2054 H   0  0  0  0  0  0  0  0  0  0  0  0
   44.9846   34.9251   13.9678 H   0  0  0  0  0  0  0  0  0  0  0  0
   44.2030   36.4484   14.4618 H   0  0  0  0  0  0  0  0  0  0  0  0
   43.5498   34.8363   17.5616 H   0  0  0  0  0  0  0  0  0  0  0  0
   44.7694   33.5608   17.3406 H   0  0  0  0  0  0  0  0  0  0  0  0
   42.1969   35.3987   15.1727 H   0  0  0  0  0  0  0  0  0  0  0  0
   48.1002   37.1314   17.0286 H   0  0  0  0  0  0  0  0  0  0  0  0
   43.7356   32.7307   15.3440 H   0  0  0  0  0  0  0  0  0  0  0  0
   42.1390   32.5993   17.4219 H   0  0  0  0  0  0  0  0  0  0  0  0
   41.4652   32.2756   15.8034 H   0  0  0  0  0  0  0  0  0  0  0  0
   46.3101   36.7870   14.7007 H   0  0  0  0  0  0  0  0  0  0  0  0
   40.2060   33.7407   17.0163 H   0  0  0  0  0  0  0  0  0  0  0  0
  1  2  1  0  0  0  0
  1  4  2  0  0  0  0
  2  9  2  0  0  0  0
  3  6  2  0  0  0  0
  3  8  1  0  0  0  0
  4 21  1  0  0  0  0
  5  9  1  0  0  0  0
  5 21  2  0  0  0  0
  6 28  1  0  0  0  0
  7  8  2  0  0  0  0
  7 28  1  0  0  0  0
  8 17  1  0  0  0  0
  9 22  1  0  0  0  0
 10 18  1  0  0  0  0
 10 22  1  0  0  0  0
 10 25  2  0  0  0  0
 11 23  1  0  0  0  0
 11 24  1  0  0  0  0
 11 26  2  0  0  0  0
 12 13  1  0  0  0  0
 12 14  1  0  0  0  0
 13 18  1  0  0  0  0
 14 22  1  0  0  0  0
 15 17  1  0  0  0  0
 15 23  1  0  0  0  0
 16 19  1  0  0  0  0
 16 23  1  0  0  0  0
 17 19  1  0  0  0  0
 18 24  1  0  0  0  0
 19 20  1  0  0  0  0
 20 27  1  0  0  0  0
  1 29  1  0  0  0  0
  2 30  1  0  0  0  0
  3 31  1  0  0  0  0
  4 32  1  0  0  0  0
  5 33  1  0  0  0  0
  6 34  1  0  0  0  0
  7 35  1  0  0  0  0
 12 36  1  0  0  0  0
 12 37  1  0  0  0  0
 13 38  1  0  0  0  0
 13 39  1  0  0  0  0
 14 40  1  0  0  0  0
 14 41  1  0  0  0  0
 15 42  1  0  0  0  0
 15 43  1  0  0  0  0
 16 44  1  0  0  0  0
 16 45  1  0  0  0  0
 17 46  1  0  0  0  0
 18 47  1  0  0  0  0
 19 48  1  0  0  0  0
 20 49  1  0  0  0  0
 20 50  1  0  0  0  0
 24 51  1  0  0  0  0
 27 52  1  0  0  0  0
M  END
> <Chemgauss4 Score>
-5.833239555359

> <Number of Confs>
200

> <og_smiles_field>
O=C(NC1CCCN(C2=CC=CN=C2)C1=O)N1C[C@@H](CO)[C@H](C2=CSC=C2)C1

$$$$

  -OEChem-03232314423D

 57 60  0     1  0  0  0  0  0999 V2000
   41.6387   33.4643   15.4423 C   0  0  0  0  0  0  0  0  0  0  0  0
   46.5724   35.9011   16.6302 C   0  0  0  0  0  0  0  0  0  0  0  0
   49.4071   39.5733   16.8998 C   0  0  0  0  0  0  0  0  0  0  0  0
   48.2284   40.3204   16.2862 C   0  0  0  0  0  0  0  0  0  0  0  0
   49.0443   38.1125   17.1489 C   0  0  0  0  0  0  0  0  0  0  0  0
   39.9730   32.2780   13.9146 C   0  0  0  0  0  0  0  0  0  0  0  0
   48.5193   34.9501   15.2754 C   0  0  0  0  0  0  0  0  0  0  0  0
   48.9851   35.0629   16.6950 C   0  0  0  0  0  0  0  0  0  0  0  0
   38.9154   33.0608   13.1351 C   0  0  0  0  0  0  0  0  0  0  0  0
   40.8114   34.4969   13.2780 C   0  0  0  0  0  0  0  0  0  0  0  0
   43.2672   35.3632   14.7701 C   0  0  0  0  0  0  0  0  0  0  0  0
   43.7921   34.3029   16.5527 C   0  0  0  0  0  0  0  0  0  0  0  0
   47.6861   39.5711   15.0765 C   0  0  0  0  0  0  0  0  0  0  0  0
   44.1728   35.6748   15.9731 C   0  0  0  0  0  0  0  0  0  0  0  0
   48.4639   37.4774   15.8833 C   0  0  1  0  0  0  0  0  0  0  0  0
   41.2126   33.1986   14.0004 C   0  0  1  0  0  0  0  0  0  0  0  0
   47.9942   36.0541   16.1507 C   0  0  0  0  0  0  0  0  0  0  0  0
   39.7213   34.0496   12.3263 C   0  0  0  0  0  0  0  0  0  0  0  0
   42.3816   32.5534   13.3000 C   0  0  0  0  0  0  0  0  0  0  0  0
   45.8944   35.8853   14.2207 C   0  0  0  0  0  0  0  0  0  0  0  0
   42.7290   34.2790   15.5671 N   0  0  0  0  0  0  0  0  0  0  0  0
   45.5839   35.8233   15.6474 N   0  0  0  0  0  0  0  0  0  0  0  0
   41.0287   32.9757   16.3920 O   0  0  0  0  0  0  0  0  0  0  0  0
   46.3480   35.8524   17.8425 O   0  0  0  0  0  0  0  0  0  0  0  0
   47.3367   38.2316   15.4247 O   0  0  0  0  0  0  0  0  0  0  0  0
   38.9732   35.0795   11.8931 F   0  0  0  0  0  0  0  0  0  0  0  0
   40.2587   33.4438   11.2431 F   0  0  0  0  0  0  0  0  0  0  0  0
   50.2656   39.6246   16.2189 H   0  0  0  0  0  0  0  0  0  0  0  0
   49.7102   40.0515   17.8377 H   0  0  0  0  0  0  0  0  0  0  0  0
   47.4369   40.4045   17.0410 H   0  0  0  0  0  0  0  0  0  0  0  0
   48.5268   41.3353   16.0038 H   0  0  0  0  0  0  0  0  0  0  0  0
   49.9251   37.5580   17.4916 H   0  0  0  0  0  0  0  0  0  0  0  0
   48.3024   38.0705   17.9573 H   0  0  0  0  0  0  0  0  0  0  0  0
   39.5857   32.0261   14.9092 H   0  0  0  0  0  0  0  0  0  0  0  0
   40.1857   31.3299   13.4080 H   0  0  0  0  0  0  0  0  0  0  0  0
   49.2211   35.2131   14.4925 H   0  0  0  0  0  0  0  0  0  0  0  0
   47.8749   34.1164   15.0223 H   0  0  0  0  0  0  0  0  0  0  0  0
   48.6533   34.3048   17.3951 H   0  0  0  0  0  0  0  0  0  0  0  0
   50.0004   35.4012   16.8665 H   0  0  0  0  0  0  0  0  0  0  0  0
   38.3537   32.3918   12.4734 H   0  0  0  0  0  0  0  0  0  0  0  0
   38.2046   33.5530   13.8051 H   0  0  0  0  0  0  0  0  0  0  0  0
   40.4465   35.2691   13.9627 H   0  0  0  0  0  0  0  0  0  0  0  0
   41.6493   34.9166   12.7095 H   0  0  0  0  0  0  0  0  0  0  0  0
   42.5423   36.1440   14.5268 H   0  0  0  0  0  0  0  0  0  0  0  0
   43.7653   35.0093   13.8625 H   0  0  0  0  0  0  0  0  0  0  0  0
   44.5135   33.4930   16.4090 H   0  0  0  0  0  0  0  0  0  0  0  0
   43.4379   34.3180   17.5864 H   0  0  0  0  0  0  0  0  0  0  0  0
   46.7826   40.0660   14.7066 H   0  0  0  0  0  0  0  0  0  0  0  0
   48.4144   39.5567   14.2571 H   0  0  0  0  0  0  0  0  0  0  0  0
   43.8138   36.5155   16.5792 H   0  0  0  0  0  0  0  0  0  0  0  0
   49.2139   37.4380   15.0915 H   0  0  0  0  0  0  0  0  0  0  0  0
   42.1214   32.3451   12.2635 H   0  0  0  0  0  0  0  0  0  0  0  0
   42.6402   31.6201   13.7973 H   0  0  0  0  0  0  0  0  0  0  0  0
   43.2410   33.2213   13.3249 H   0  0  0  0  0  0  0  0  0  0  0  0
   46.0758   34.8694   13.8400 H   0  0  0  0  0  0  0  0  0  0  0  0
   45.0475   36.3335   13.6805 H   0  0  0  0  0  0  0  0  0  0  0  0
   46.7936   36.5001   14.0677 H   0  0  0  0  0  0  0  0  0  0  0  0
  1 16  1  0  0  0  0
  1 21  1  0  0  0  0
  1 23  2  0  0  0  0
  2 17  1  0  0  0  0
  2 22  1  0  0  0  0
  2 24  2  0  0  0  0
  3  4  1  0  0  0  0
  3  5  1  0  0  0  0
  4 13  1  0  0  0  0
  5 15  1  0  0  0  0
  6  9  1  0  0  0  0
  6 16  1  0  0  0  0
  7  8  1  0  0  0  0
  7 17  1  0  0  0  0
  8 17  1  0  0  0  0
  9 18  1  0  0  0  0
 10 16  1  0  0  0  0
 10 18  1  0  0  0  0
 11 14  1  0  0  0  0
 11 21  1  0  0  0  0
 12 14  1  0  0  0  0
 12 21  1  0  0  0  0
 13 25  1  0  0  0  0
 14 22  1  0  0  0  0
 15 17  1  0  0  0  0
 15 25  1  0  0  0  0
 16 19  1  0  0  0  0
 18 26  1  0  0  0  0
 18 27  1  0  0  0  0
 20 22  1  0  0  0  0
  3 28  1  0  0  0  0
  3 29  1  0  0  0  0
  4 30  1  0  0  0  0
  4 31  1  0  0  0  0
  5 32  1  0  0  0  0
  5 33  1  0  0  0  0
  6 34  1  0  0  0  0
  6 35  1  0  0  0  0
  7 36  1  0  0  0  0
  7 37  1  0  0  0  0
  8 38  1  0  0  0  0
  8 39  1  0  0  0  0
  9 40  1  0  0  0  0
  9 41  1  0  0  0  0
 10 42  1  0  0  0  0
 10 43  1  0  0  0  0
 11 44  1  0  0  0  0
 11 45  1  0  0  0  0
 12 46  1  0  0  0  0
 12 47  1  0  0  0  0
 13 48  1  0  0  0  0
 13 49  1  0  0  0  0
 14 50  1  0  0  0  0
 15 51  1  0  0  0  0
 19 52  1  0  0  0  0
 19 53  1  0  0  0  0
 19 54  1  0  0  0  0
 20 55  1  0  0  0  0
 20 56  1  0  0  0  0
 20 57  1  0  0  0  0
M  END
> <Chemgauss4 Score>
-6.815915107727

> <Number of Confs>
200

> <og_smiles_field>
CN(C(=O)C1(C2CCCCO2)CC1)C1CN(C(=O)C2(C)CCC(F)(F)C2)C1

$$$$

  -OEChem-03232314423D

 54 57  0     1  0  0  0  0  0999 V2000
   45.5556   35.7990   17.0473 C   0  0  0  0  0  0  0  0  0  0  0  0
   45.1607   35.0769   15.9435 C   0  0  0  0  0  0  0  0  0  0  0  0
   47.0431   35.9327   15.4075 C   0  0  0  0  0  0  0  0  0  0  0  0
   43.9213   34.2951   15.8150 C   0  0  0  0  0  0  0  0  0  0  0  0
   42.5865   38.4476   12.4890 C   0  0  0  0  0  0  0  0  0  0  0  0
   48.2782   36.3945   14.7225 C   0  0  0  0  0  0  0  0  0  0  0  0
   40.4064   32.4477   15.0952 C   0  0  0  0  0  0  0  0  0  0  0  0
   41.8796   32.0583   14.8574 C   0  0  0  0  0  0  0  0  0  0  0  0
   40.8360   33.9274   15.0236 C   0  0  0  0  0  0  0  0  0  0  0  0
   41.9820   33.5182   12.6994 C   0  0  0  0  0  0  0  0  0  0  0  0
   47.6436   37.1492   17.4808 C   0  0  0  0  0  0  0  0  0  0  0  0
   43.9353   34.7595   13.3154 C   0  0  0  0  0  0  0  0  0  0  0  0
   48.6703   37.8293   16.5835 C   0  0  0  0  0  0  0  0  0  0  0  0
   42.7948   34.7545   12.3032 C   0  0  2  0  0  0  0  0  0  0  0  0
   42.0863   33.4609   14.2292 C   0  0  0  0  0  0  0  0  0  0  0  0
   45.3220   39.0507   13.7137 C   0  0  0  0  0  0  0  0  0  0  0  0
   41.9716   36.0393   12.3686 C   0  0  0  0  0  0  0  0  0  0  0  0
   45.0195   39.1187   12.2243 C   0  0  0  0  0  0  0  0  0  0  0  0
   43.5630   39.4575   11.9225 C   0  0  0  0  0  0  0  0  0  0  0  0
   46.0862   35.1642   14.9293 N   0  0  0  0  0  0  0  0  0  0  0  0
   46.7504   36.3347   16.6849 N   0  0  0  0  0  0  0  0  0  0  0  0
   43.3673   34.1718   14.5418 N   0  0  0  0  0  0  0  0  0  0  0  0
   42.7764   37.1577   11.9965 N   0  0  0  0  0  0  0  0  0  0  0  0
   43.4668   33.8149   16.8509 O   0  0  0  0  0  0  0  0  0  0  0  0
   41.7157   38.7745   13.2920 O   0  0  0  0  0  0  0  0  0  0  0  0
   49.2318   36.8583   15.6916 O   0  0  0  0  0  0  0  0  0  0  0  0
   43.4108   39.5721   10.5737 F   0  0  0  0  0  0  0  0  0  0  0  0
   43.3070   40.6985   12.4273 F   0  0  0  0  0  0  0  0  0  0  0  0
   45.1077   35.9634   18.0174 H   0  0  0  0  0  0  0  0  0  0  0  0
   48.7389   35.5723   14.1672 H   0  0  0  0  0  0  0  0  0  0  0  0
   48.0549   37.2046   14.0201 H   0  0  0  0  0  0  0  0  0  0  0  0
   39.7341   32.1447   14.2840 H   0  0  0  0  0  0  0  0  0  0  0  0
   39.9788   32.1236   16.0476 H   0  0  0  0  0  0  0  0  0  0  0  0
   42.4339   31.8761   15.7859 H   0  0  0  0  0  0  0  0  0  0  0  0
   42.0344   31.2009   14.1943 H   0  0  0  0  0  0  0  0  0  0  0  0
   40.1438   34.5824   14.4870 H   0  0  0  0  0  0  0  0  0  0  0  0
   41.0242   34.3690   16.0058 H   0  0  0  0  0  0  0  0  0  0  0  0
   40.9299   33.6430   12.3954 H   0  0  0  0  0  0  0  0  0  0  0  0
   42.3576   32.6079   12.2084 H   0  0  0  0  0  0  0  0  0  0  0  0
   48.1362   36.4635   18.1792 H   0  0  0  0  0  0  0  0  0  0  0  0
   47.0529   37.8803   18.0404 H   0  0  0  0  0  0  0  0  0  0  0  0
   44.7940   34.1742   12.9637 H   0  0  0  0  0  0  0  0  0  0  0  0
   44.2772   35.7738   13.5632 H   0  0  0  0  0  0  0  0  0  0  0  0
   48.2262   38.6465   16.0020 H   0  0  0  0  0  0  0  0  0  0  0  0
   49.4802   38.2489   17.1882 H   0  0  0  0  0  0  0  0  0  0  0  0
   43.1939   34.6283   11.3007 H   0  0  0  0  0  0  0  0  0  0  0  0
   45.1081   40.0029   14.2085 H   0  0  0  0  0  0  0  0  0  0  0  0
   46.3807   38.8222   13.8720 H   0  0  0  0  0  0  0  0  0  0  0  0
   44.7310   38.2684   14.2004 H   0  0  0  0  0  0  0  0  0  0  0  0
   41.1328   35.9314   11.6788 H   0  0  0  0  0  0  0  0  0  0  0  0
   41.6167   36.1540   13.3943 H   0  0  0  0  0  0  0  0  0  0  0  0
   45.2495   38.1442   11.7771 H   0  0  0  0  0  0  0  0  0  0  0  0
   45.6890   39.8433   11.7466 H   0  0  0  0  0  0  0  0  0  0  0  0
   43.5373   37.0035   11.3291 H   0  0  0  0  0  0  0  0  0  0  0  0
  1  2  2  0  0  0  0
  1 21  1  0  0  0  0
  2  4  1  0  0  0  0
  2 20  1  0  0  0  0
  3  6  1  0  0  0  0
  3 20  2  0  0  0  0
  3 21  1  0  0  0  0
  4 22  1  0  0  0  0
  4 24  2  0  0  0  0
  5 19  1  0  0  0  0
  5 23  1  0  0  0  0
  5 25  2  0  0  0  0
  6 26  1  0  0  0  0
  7  8  1  0  0  0  0
  7  9  1  0  0  0  0
  8 15  1  0  0  0  0
  9 15  1  0  0  0  0
 10 14  1  0  0  0  0
 10 15  1  0  0  0  0
 11 13  1  0  0  0  0
 11 21  1  0  0  0  0
 12 14  1  0  0  0  0
 12 22  1  0  0  0  0
 13 26  1  0  0  0  0
 14 17  1  0  0  0  0
 15 22  1  0  0  0  0
 16 18  1  0  0  0  0
 17 23  1  0  0  0  0
 18 19  1  0  0  0  0
 19 27  1  0  0  0  0
 19 28  1  0  0  0  0
  1 29  1  0  0  0  0
  6 30  1  0  0  0  0
  6 31  1  0  0  0  0
  7 32  1  0  0  0  0
  7 33  1  0  0  0  0
  8 34  1  0  0  0  0
  8 35  1  0  0  0  0
  9 36  1  0  0  0  0
  9 37  1  0  0  0  0
 10 38  1  0  0  0  0
 10 39  1  0  0  0  0
 11 40  1  0  0  0  0
 11 41  1  0  0  0  0
 12 42  1  0  0  0  0
 12 43  1  0  0  0  0
 13 44  1  0  0  0  0
 13 45  1  0  0  0  0
 14 46  1  0  0  0  0
 16 47  1  0  0  0  0
 16 48  1  0  0  0  0
 16 49  1  0  0  0  0
 17 50  1  0  0  0  0
 17 51  1  0  0  0  0
 18 52  1  0  0  0  0
 18 53  1  0  0  0  0
 23 54  1  0  0  0  0
M  END
> <Chemgauss4 Score>
-4.732004642487

> <Number of Confs>
200

> <og_smiles_field>
CCC(F)(F)C(=O)NCC1CN(C(=O)C2=CN3CCOCC3=N2)C2(CCC2)C1

$$$$

  -OEChem-03232314423D

 48 50  0     0  0  0  0  0  0999 V2000
   42.9987   32.9767   16.6934 C   0  0  0  0  0  0  0  0  0  0  0  0
   44.1701   33.7226   16.8339 C   0  0  0  0  0  0  0  0  0  0  0  0
   42.0708   33.4276   15.7494 C   0  0  0  0  0  0  0  0  0  0  0  0
   44.3509   34.8543   16.0424 C   0  0  0  0  0  0  0  0  0  0  0  0
   42.3771   34.5695   15.0293 C   0  0  0  0  0  0  0  0  0  0  0  0
   45.5971   35.6491   16.1918 C   0  0  0  0  0  0  0  0  0  0  0  0
   49.1324   35.3272   13.2386 C   0  0  0  0  0  0  0  0  0  0  0  0
   47.8390   40.4138   15.8408 C   0  0  0  0  0  0  0  0  0  0  0  0
   47.7133   39.8501   14.4295 C   0  0  0  0  0  0  0  0  0  0  0  0
   48.0943   39.3179   16.8699 C   0  0  0  0  0  0  0  0  0  0  0  0
   46.6559   38.7495   14.3532 C   0  0  0  0  0  0  0  0  0  0  0  0
   47.0370   38.2170   16.7955 C   0  0  0  0  0  0  0  0  0  0  0  0
   46.8706   37.6201   15.3817 C   0  0  0  0  0  0  0  0  0  0  0  0
   41.0766   35.7812   13.2423 C   0  0  0  0  0  0  0  0  0  0  0  0
   51.2464   34.6273   14.0380 C   0  0  0  0  0  0  0  0  0  0  0  0
   47.9312   36.1614   13.6214 C   0  0  0  0  0  0  0  0  0  0  0  0
   48.0933   36.7654   15.0078 C   0  0  0  0  0  0  0  0  0  0  0  0
   40.8474   32.9612   15.3525 N   0  0  0  0  0  0  0  0  0  0  0  0
   43.4806   35.3282   15.1162 N   0  0  0  0  0  0  0  0  0  0  0  0
   40.3832   33.7765   14.4080 N   0  0  0  0  0  0  0  0  0  0  0  0
   41.3006   34.7415   14.2145 N   0  0  0  0  0  0  0  0  0  0  0  0
   45.6989   36.7548   15.3713 N   0  0  0  0  0  0  0  0  0  0  0  0
   46.4506   35.2814   16.9948 O   0  0  0  0  0  0  0  0  0  0  0  0
   49.2596   34.7137   12.1880 O   0  0  0  0  0  0  0  0  0  0  0  0
   50.0447   35.3740   14.2544 O   0  0  0  0  0  0  0  0  0  0  0  0
   42.8227   32.0900   17.2917 H   0  0  0  0  0  0  0  0  0  0  0  0
   44.9223   33.4143   17.5539 H   0  0  0  0  0  0  0  0  0  0  0  0
   48.6619   41.1398   15.8708 H   0  0  0  0  0  0  0  0  0  0  0  0
   46.9249   40.9605   16.1023 H   0  0  0  0  0  0  0  0  0  0  0  0
   47.4616   40.6584   13.7322 H   0  0  0  0  0  0  0  0  0  0  0  0
   48.6819   39.4490   14.1090 H   0  0  0  0  0  0  0  0  0  0  0  0
   49.0849   38.8815   16.6970 H   0  0  0  0  0  0  0  0  0  0  0  0
   48.1191   39.7538   17.8754 H   0  0  0  0  0  0  0  0  0  0  0  0
   45.6568   39.1947   14.4771 H   0  0  0  0  0  0  0  0  0  0  0  0
   46.6701   38.3249   13.3370 H   0  0  0  0  0  0  0  0  0  0  0  0
   47.3187   37.4172   17.4983 H   0  0  0  0  0  0  0  0  0  0  0  0
   46.0752   38.6096   17.1587 H   0  0  0  0  0  0  0  0  0  0  0  0
   41.4828   35.4417   12.2858 H   0  0  0  0  0  0  0  0  0  0  0  0
   40.0036   35.9734   13.1554 H   0  0  0  0  0  0  0  0  0  0  0  0
   41.5790   36.6959   13.5692 H   0  0  0  0  0  0  0  0  0  0  0  0
   51.9027   34.7322   14.9055 H   0  0  0  0  0  0  0  0  0  0  0  0
   51.7493   34.9965   13.1407 H   0  0  0  0  0  0  0  0  0  0  0  0
   50.9908   33.5738   13.9027 H   0  0  0  0  0  0  0  0  0  0  0  0
   47.8168   36.9576   12.8771 H   0  0  0  0  0  0  0  0  0  0  0  0
   47.0453   35.5172   13.5949 H   0  0  0  0  0  0  0  0  0  0  0  0
   48.2092   35.9812   15.7581 H   0  0  0  0  0  0  0  0  0  0  0  0
   48.9830   37.3958   15.0520 H   0  0  0  0  0  0  0  0  0  0  0  0
   44.9869   36.9666   14.6865 H   0  0  0  0  0  0  0  0  0  0  0  0
  1  2  1  0  0  0  0
  1  3  2  0  0  0  0
  2  4  2  0  0  0  0
  3  5  1  0  0  0  0
  3 18  1  0  0  0  0
  4  6  1  0  0  0  0
  4 19  1  0  0  0  0
  5 19  2  0  0  0  0
  5 21  1  0  0  0  0
  6 22  1  0  0  0  0
  6 23  2  0  0  0  0
  7 16  1  0  0  0  0
  7 24  2  0  0  0  0
  7 25  1  0  0  0  0
  8  9  1  0  0  0  0
  8 10  1  0  0  0  0
  9 11  1  0  0  0  0
 10 12  1  0  0  0  0
 11 13  1  0  0  0  0
 12 13  1  0  0  0  0
 13 17  1  0  0  0  0
 13 22  1  0  0  0  0
 14 21  1  0  0  0  0
 15 25  1  0  0  0  0
 16 17  1  0  0  0  0
 18 20  2  0  0  0  0
 20 21  1  0  0  0  0
  1 26  1  0  0  0  0
  2 27  1  0  0  0  0
  8 28  1  0  0  0  0
  8 29  1  0  0  0  0
  9 30  1  0  0  0  0
  9 31  1  0  0  0  0
 10 32  1  0  0  0  0
 10 33  1  0  0  0  0
 11 34  1  0  0  0  0
 11 35  1  0  0  0  0
 12 36  1  0  0  0  0
 12 37  1  0  0  0  0
 14 38  1  0  0  0  0
 14 39  1  0  0  0  0
 14 40  1  0  0  0  0
 15 41  1  0  0  0  0
 15 42  1  0  0  0  0
 15 43  1  0  0  0  0
 16 44  1  0  0  0  0
 16 45  1  0  0  0  0
 17 46  1  0  0  0  0
 17 47  1  0  0  0  0
 22 48  1  0  0  0  0
M  END
> <Chemgauss4 Score>
-6.233806610107

> <Number of Confs>
200

> <og_smiles_field>
COC(=O)CCC1(NC(=O)C2=CC=C3N=NN(C)C3=N2)CCCCC1

$$$$

  -OEChem-03232314423D

 33 36  0     1  0  0  0  0  0999 V2000
   42.6888   33.2940   16.5321 C   0  0  0  0  0  0  0  0  0  0  0  0
   43.2810   34.3172   15.8353 C   0  0  0  0  0  0  0  0  0  0  0  0
   45.4027   34.8564   17.0730 C   0  0  0  0  0  0  0  0  0  0  0  0
   41.9415   35.3742   12.4119 C   0  0  0  0  0  0  0  0  0  0  0  0
   43.4276   35.2486   12.5368 C   0  0  0  0  0  0  0  0  0  0  0  0
   46.4528   36.7428   15.7546 C   0  0  0  0  0  0  0  0  0  0  0  0
   47.9169   35.1731   16.7679 C   0  0  0  0  0  0  0  0  0  0  0  0
   47.4302   37.8086   17.5948 C   0  0  0  0  0  0  0  0  0  0  0  0
   42.5953   35.5365   13.7642 C   0  0  0  0  0  0  0  0  0  0  0  0
   47.7435   37.4232   16.1491 C   0  0  1  0  0  0  0  0  0  0  0  0
   46.5410   35.8106   16.9442 C   0  0  2  0  0  0  0  0  0  0  0  0
   41.5193   32.9377   15.9199 N   0  0  0  0  0  0  0  0  0  0  0  0
   41.3640   33.7141   14.8530 N   0  0  0  0  0  0  0  0  0  0  0  0
   42.4214   34.5403   14.8040 N   0  0  0  0  0  0  0  0  0  0  0  0
   48.7010   36.2916   16.1870 N   0  0  0  0  0  0  0  0  0  0  0  0
   44.4830   35.0332   16.0470 N   0  0  0  0  0  0  0  0  0  0  0  0
   45.3618   34.0481   17.9949 O   0  0  0  0  0  0  0  0  0  0  0  0
   46.6256   36.6998   18.0702 O   0  0  0  0  0  0  0  0  0  0  0  0
   43.0349   32.8014   17.4285 H   0  0  0  0  0  0  0  0  0  0  0  0
   41.5486   36.2634   11.9339 H   0  0  0  0  0  0  0  0  0  0  0  0
   41.3737   34.4728   12.2168 H   0  0  0  0  0  0  0  0  0  0  0  0
   43.8607   34.2618   12.4268 H   0  0  0  0  0  0  0  0  0  0  0  0
   44.0381   36.0522   12.1434 H   0  0  0  0  0  0  0  0  0  0  0  0
   45.5898   37.4167   15.7947 H   0  0  0  0  0  0  0  0  0  0  0  0
   46.4813   36.2350   14.7843 H   0  0  0  0  0  0  0  0  0  0  0  0
   48.3526   34.8538   17.7208 H   0  0  0  0  0  0  0  0  0  0  0  0
   47.9075   34.3293   16.0707 H   0  0  0  0  0  0  0  0  0  0  0  0
   48.3127   37.9257   18.2316 H   0  0  0  0  0  0  0  0  0  0  0  0
   46.8195   38.7154   17.6535 H   0  0  0  0  0  0  0  0  0  0  0  0
   42.6465   36.5429   14.1646 H   0  0  0  0  0  0  0  0  0  0  0  0
   48.0793   38.2460   15.5160 H   0  0  0  0  0  0  0  0  0  0  0  0
   49.4875   36.5171   16.7949 H   0  0  0  0  0  0  0  0  0  0  0  0
   44.6855   35.7576   15.3612 H   0  0  0  0  0  0  0  0  0  0  0  0
  1  2  2  0  0  0  0
  1 12  1  0  0  0  0
  2 14  1  0  0  0  0
  2 16  1  0  0  0  0
  3 11  1  0  0  0  0
  3 16  1  0  0  0  0
  3 17  2  0  0  0  0
  4  5  1  0  0  0  0
  4  9  1  0  0  0  0
  5  9  1  0  0  0  0
  6 10  1  0  0  0  0
  6 11  1  0  0  0  0
  7 11  1  0  0  0  0
  7 15  1  0  0  0  0
  8 10  1  0  0  0  0
  8 18  1  0  0  0  0
  9 14  1  0  0  0  0
 10 15  1  0  0  0  0
 11 18  1  0  0  0  0
 12 13  2  0  0  0  0
 13 14  1  0  0  0  0
  1 19  1  0  0  0  0
  4 20  1  0  0  0  0
  4 21  1  0  0  0  0
  5 22  1  0  0  0  0
  5 23  1  0  0  0  0
  6 24  1  0  0  0  0
  6 25  1  0  0  0  0
  7 26  1  0  0  0  0
  7 27  1  0  0  0  0
  8 28  1  0  0  0  0
  8 29  1  0  0  0  0
  9 30  1  0  0  0  0
 10 31  1  0  0  0  0
 15 32  1  0  0  0  0
 16 33  1  0  0  0  0
M  END
> <Chemgauss4 Score>
-5.603863239288

> <Number of Confs>
24

> <og_smiles_field>
O=C(NC1=CN=NN1C1CC1)C12CNC(CO1)C2

$$$$

  -OEChem-03232314423D

 39 40  0     1  0  0  0  0  0999 V2000
   47.4638   36.5470   17.0316 C   0  0  0  0  0  0  0  0  0  0  0  0
   49.2725   38.0900   17.1003 C   0  0  0  0  0  0  0  0  0  0  0  0
   47.5057   36.6064   15.6431 C   0  0  0  0  0  0  0  0  0  0  0  0
   48.3606   37.2998   17.7815 C   0  0  0  0  0  0  0  0  0  0  0  0
   48.4557   37.4278   15.0576 C   0  0  0  0  0  0  0  0  0  0  0  0
   46.5452   35.8006   14.8306 C   0  0  0  0  0  0  0  0  0  0  0  0
   42.9682   33.8513   16.5200 C   0  0  0  0  0  0  0  0  0  0  0  0
   42.0330   32.7048   16.1754 C   0  0  0  0  0  0  0  0  0  0  0  0
   41.4459   34.4049   14.7157 C   0  0  0  0  0  0  0  0  0  0  0  0
   42.6421   34.9344   15.4957 C   0  0  2  0  0  0  0  0  0  0  0  0
   42.5509   36.7879   12.7036 C   0  0  0  0  0  0  0  0  0  0  0  0
   44.8439   37.6182   13.3156 C   0  0  0  0  0  0  0  0  0  0  0  0
   43.5921   36.9063   13.8068 C   0  0  0  0  0  0  0  0  0  0  0  0
   49.3434   38.1736   15.7529 N   0  0  0  0  0  0  0  0  0  0  0  0
   45.2582   35.4955   15.3345 N   0  0  0  0  0  0  0  0  0  0  0  0
   40.8783   33.3802   15.5898 N   0  0  0  0  0  0  0  0  0  0  0  0
   46.9247   35.4224   13.7239 O   0  0  0  0  0  0  0  0  0  0  0  0
   43.9333   34.3790   13.3075 O   0  0  0  0  0  0  0  0  0  0  0  0
   48.5307   37.5155   13.6915 O   0  0  0  0  0  0  0  0  0  0  0  0
   48.3437   37.2618   19.1185 F   0  0  0  0  0  0  0  0  0  0  0  0
   44.0074   35.2937   14.4389 S   0  0  1  0  0  0  0  0  0  0  0  0
   46.7372   35.9181   17.5394 H   0  0  0  0  0  0  0  0  0  0  0  0
   49.9935   38.6956   17.6393 H   0  0  0  0  0  0  0  0  0  0  0  0
   42.7385   34.2246   17.5258 H   0  0  0  0  0  0  0  0  0  0  0  0
   44.0154   33.5332   16.5143 H   0  0  0  0  0  0  0  0  0  0  0  0
   42.4964   32.0335   15.4427 H   0  0  0  0  0  0  0  0  0  0  0  0
   41.7568   32.1203   17.0574 H   0  0  0  0  0  0  0  0  0  0  0  0
   40.7161   35.1939   14.5103 H   0  0  0  0  0  0  0  0  0  0  0  0
   41.7405   33.9597   13.7578 H   0  0  0  0  0  0  0  0  0  0  0  0
   42.3959   35.8713   16.0082 H   0  0  0  0  0  0  0  0  0  0  0  0
   42.9516   36.2392   11.8451 H   0  0  0  0  0  0  0  0  0  0  0  0
   41.6551   36.2647   13.0561 H   0  0  0  0  0  0  0  0  0  0  0  0
   42.2382   37.7782   12.3555 H   0  0  0  0  0  0  0  0  0  0  0  0
   45.2897   37.0860   12.4691 H   0  0  0  0  0  0  0  0  0  0  0  0
   45.5967   37.6921   14.1081 H   0  0  0  0  0  0  0  0  0  0  0  0
   44.6092   38.6368   12.9885 H   0  0  0  0  0  0  0  0  0  0  0  0
   43.1667   37.4581   14.6521 H   0  0  0  0  0  0  0  0  0  0  0  0
   40.3079   32.7264   15.0567 H   0  0  0  0  0  0  0  0  0  0  0  0
   47.8580   36.9481   13.2905 H   0  0  0  0  0  0  0  0  0  0  0  0
  1  3  2  0  0  0  0
  1  4  1  0  0  0  0
  2  4  2  0  0  0  0
  2 14  1  0  0  0  0
  3  5  1  0  0  0  0
  3  6  1  0  0  0  0
  4 20  1  0  0  0  0
  5 14  2  0  0  0  0
  5 19  1  0  0  0  0
  6 15  1  0  0  0  0
  6 17  2  0  0  0  0
  7  8  1  0  0  0  0
  7 10  1  0  0  0  0
  8 16  1  0  0  0  0
  9 10  1  0  0  0  0
  9 16  1  0  0  0  0
 10 21  1  0  0  0  0
 11 13  1  0  0  0  0
 12 13  1  0  0  0  0
 13 21  1  0  0  0  0
 15 21  2  0  0  0  0
 18 21  2  0  0  0  0
  1 22  1  0  0  0  0
  2 23  1  0  0  0  0
  7 24  1  0  0  0  0
  7 25  1  0  0  0  0
  8 26  1  0  0  0  0
  8 27  1  0  0  0  0
  9 28  1  0  0  0  0
  9 29  1  0  0  0  0
 10 30  1  0  0  0  0
 11 31  1  0  0  0  0
 11 32  1  0  0  0  0
 11 33  1  0  0  0  0
 12 34  1  0  0  0  0
 12 35  1  0  0  0  0
 12 36  1  0  0  0  0
 13 37  1  0  0  0  0
 16 38  1  0  0  0  0
 19 39  1  0  0  0  0
M  END
> <Chemgauss4 Score>
-6.395356655121

> <Number of Confs>
91

> <og_smiles_field>
CC(C)S(=O)(=NC(=O)C1=CC(F)=CN=C1O)C1CCNC1

$$$$

  -OEChem-03232314423D

 64 67  0     1  0  0  0  0  0999 V2000
   42.3163   34.5884   16.1693 C   0  0  0  0  0  0  0  0  0  0  0  0
   41.6176   33.5020   16.7291 C   0  0  0  0  0  0  0  0  0  0  0  0
   42.0400   34.5188   14.8257 C   0  0  0  0  0  0  0  0  0  0  0  0
   42.5080   35.4119   13.7347 C   0  0  0  0  0  0  0  0  0  0  0  0
   48.3796   38.5921   14.8062 C   0  0  0  0  0  0  0  0  0  0  0  0
   49.4580   35.0905   15.4680 C   0  0  0  0  0  0  0  0  0  0  0  0
   49.6885   36.4274   14.7631 C   0  0  0  0  0  0  0  0  0  0  0  0
   42.3017   38.0359   11.9471 C   0  0  0  0  0  0  0  0  0  0  0  0
   42.4322   39.0376   13.0520 C   0  0  0  0  0  0  0  0  0  0  0  0
   45.4038   36.7504   13.8422 C   0  0  0  0  0  0  0  0  0  0  0  0
   45.2483   39.1742   13.1708 C   0  0  0  0  0  0  0  0  0  0  0  0
   48.6477   35.4151   16.7127 C   0  0  0  0  0  0  0  0  0  0  0  0
   46.9220   36.8314   13.6912 C   0  0  0  0  0  0  0  0  0  0  0  0
   46.7685   39.2051   13.0316 C   0  0  0  0  0  0  0  0  0  0  0  0
   44.6968   37.7614   12.9267 C   0  0  0  0  0  0  0  0  0  0  0  0
   49.0103   37.4829   15.6457 C   0  0  1  0  0  0  0  0  0  0  0  0
   43.1855   37.7235   13.1401 C   0  0  0  0  0  0  0  0  0  0  0  0
   50.0218   38.0829   16.5897 C   0  0  0  0  0  0  0  0  0  0  0  0
   39.2750   32.3318   13.6389 C   0  0  0  0  0  0  0  0  0  0  0  0
   41.6046   31.9850   12.7121 C   0  0  0  0  0  0  0  0  0  0  0  0
   47.3881   37.3230   17.5320 C   0  0  0  0  0  0  0  0  0  0  0  0
   40.6595   32.9491   13.4317 C   0  0  0  0  0  0  0  0  0  0  0  0
   40.9477   32.7941   15.8158 N   0  0  0  0  0  0  0  0  0  0  0  0
   41.2241   33.4372   14.6685 N   0  0  0  0  0  0  0  0  0  0  0  0
   47.3931   38.2056   13.8998 N   0  0  0  0  0  0  0  0  0  0  0  0
   48.0156   36.6903   16.3825 N   0  0  2  0  0  0  0  0  0  0  0  0
   42.7545   36.7396   14.0827 N   0  0  0  0  0  0  0  0  0  0  0  0
   42.6339   34.9581   12.6003 O   0  0  0  0  0  0  0  0  0  0  0  0
   48.7583   39.7558   14.9628 O   0  0  0  0  0  0  0  0  0  0  0  0
   42.9323   35.3178   16.6753 H   0  0  0  0  0  0  0  0  0  0  0  0
   41.5681   33.1967   17.7644 H   0  0  0  0  0  0  0  0  0  0  0  0
   48.8911   34.4093   14.8050 H   0  0  0  0  0  0  0  0  0  0  0  0
   50.4094   34.5838   15.7089 H   0  0  0  0  0  0  0  0  0  0  0  0
   50.7741   36.5989   14.7009 H   0  0  0  0  0  0  0  0  0  0  0  0
   49.3064   36.3880   13.7332 H   0  0  0  0  0  0  0  0  0  0  0  0
   41.3588   37.5096   11.8545 H   0  0  0  0  0  0  0  0  0  0  0  0
   42.7723   38.2667   10.9987 H   0  0  0  0  0  0  0  0  0  0  0  0
   42.9904   39.9436   12.8481 H   0  0  0  0  0  0  0  0  0  0  0  0
   41.5769   39.1843   13.7014 H   0  0  0  0  0  0  0  0  0  0  0  0
   45.0677   35.7339   13.6042 H   0  0  0  0  0  0  0  0  0  0  0  0
   45.1303   36.9318   14.8899 H   0  0  0  0  0  0  0  0  0  0  0  0
   44.9649   39.5236   14.1721 H   0  0  0  0  0  0  0  0  0  0  0  0
   44.8023   39.8772   12.4573 H   0  0  0  0  0  0  0  0  0  0  0  0
   47.9085   34.6294   16.9231 H   0  0  0  0  0  0  0  0  0  0  0  0
   49.3145   35.5056   17.5851 H   0  0  0  0  0  0  0  0  0  0  0  0
   47.3915   36.1281   14.3811 H   0  0  0  0  0  0  0  0  0  0  0  0
   47.2200   36.5382   12.6776 H   0  0  0  0  0  0  0  0  0  0  0  0
   47.0644   38.9750   12.0011 H   0  0  0  0  0  0  0  0  0  0  0  0
   47.1395   40.2088   13.2615 H   0  0  0  0  0  0  0  0  0  0  0  0
   44.8857   37.4848   11.8845 H   0  0  0  0  0  0  0  0  0  0  0  0
   50.4730   37.2960   17.1892 H   0  0  0  0  0  0  0  0  0  0  0  0
   49.5299   38.7976   17.2451 H   0  0  0  0  0  0  0  0  0  0  0  0
   50.7963   38.5905   16.0198 H   0  0  0  0  0  0  0  0  0  0  0  0
   39.3144   31.4467   14.2828 H   0  0  0  0  0  0  0  0  0  0  0  0
   38.8426   32.0267   12.6799 H   0  0  0  0  0  0  0  0  0  0  0  0
   38.5919   33.0519   14.1029 H   0  0  0  0  0  0  0  0  0  0  0  0
   41.7764   31.0853   13.3132 H   0  0  0  0  0  0  0  0  0  0  0  0
   42.5748   32.4604   12.5322 H   0  0  0  0  0  0  0  0  0  0  0  0
   41.2047   31.6674   11.7433 H   0  0  0  0  0  0  0  0  0  0  0  0
   46.9311   38.2748   17.2233 H   0  0  0  0  0  0  0  0  0  0  0  0
   46.6113   36.6581   17.9377 H   0  0  0  0  0  0  0  0  0  0  0  0
   48.1471   37.5144   18.3048 H   0  0  0  0  0  0  0  0  0  0  0  0
   40.5304   33.8231   12.7803 H   0  0  0  0  0  0  0  0  0  0  0  0
   42.5628   37.0458   15.0390 H   0  0  0  0  0  0  0  0  0  0  0  0
  1  2  1  0  0  0  0
  1  3  2  0  0  0  0
  2 23  2  0  0  0  0
  3  4  1  0  0  0  0
  3 24  1  0  0  0  0
  4 27  1  0  0  0  0
  4 28  2  0  0  0  0
  5 16  1  0  0  0  0
  5 25  1  0  0  0  0
  5 29  2  0  0  0  0
  6  7  1  0  0  0  0
  6 12  1  0  0  0  0
  7 16  1  0  0  0  0
  8  9  1  0  0  0  0
  8 17  1  0  0  0  0
  9 17  1  0  0  0  0
 10 13  1  0  0  0  0
 10 15  1  0  0  0  0
 11 14  1  0  0  0  0
 11 15  1  0  0  0  0
 12 26  1  0  0  0  0
 13 25  1  0  0  0  0
 14 25  1  0  0  0  0
 15 17  1  0  0  0  0
 16 18  1  0  0  0  0
 16 26  1  0  0  0  0
 17 27  1  0  0  0  0
 19 22  1  0  0  0  0
 20 22  1  0  0  0  0
 21 26  1  0  0  0  0
 22 24  1  0  0  0  0
 23 24  1  0  0  0  0
  1 30  1  0  0  0  0
  2 31  1  0  0  0  0
  6 32  1  0  0  0  0
  6 33  1  0  0  0  0
  7 34  1  0  0  0  0
  7 35  1  0  0  0  0
  8 36  1  0  0  0  0
  8 37  1  0  0  0  0
  9 38  1  0  0  0  0
  9 39  1  0  0  0  0
 10 40  1  0  0  0  0
 10 41  1  0  0  0  0
 11 42  1  0  0  0  0
 11 43  1  0  0  0  0
 12 44  1  0  0  0  0
 12 45  1  0  0  0  0
 13 46  1  0  0  0  0
 13 47  1  0  0  0  0
 14 48  1  0  0  0  0
 14 49  1  0  0  0  0
 15 50  1  0  0  0  0
 18 51  1  0  0  0  0
 18 52  1  0  0  0  0
 18 53  1  0  0  0  0
 19 54  1  0  0  0  0
 19 55  1  0  0  0  0
 19 56  1  0  0  0  0
 20 57  1  0  0  0  0
 20 58  1  0  0  0  0
 20 59  1  0  0  0  0
 21 60  1  0  0  0  0
 21 61  1  0  0  0  0
 21 62  1  0  0  0  0
 22 63  1  0  0  0  0
 27 64  1  0  0  0  0
M  END
> <Chemgauss4 Score>
-4.734920978546

> <Number of Confs>
62

> <og_smiles_field>
CC(C)N1N=CC=C1C(=O)NC1(C2CCN(C(=O)C3(C)CCCN3C)CC2)CC1

$$$$

  -OEChem-03232314423D

 48 51  0     1  0  0  0  0  0999 V2000
   50.5700   36.9639   14.0688 C   0  0  0  0  0  0  0  0  0  0  0  0
   49.6530   36.0235   14.5998 C   0  0  0  0  0  0  0  0  0  0  0  0
   50.6057   38.0364   14.9324 C   0  0  0  0  0  0  0  0  0  0  0  0
   49.1561   36.5501   15.7716 C   0  0  0  0  0  0  0  0  0  0  0  0
   48.1708   35.9421   16.6829 C   0  0  0  0  0  0  0  0  0  0  0  0
   41.3395   33.3757   15.7207 C   0  0  0  0  0  0  0  0  0  0  0  0
   39.6070   32.5469   14.0135 C   0  0  0  0  0  0  0  0  0  0  0  0
   40.4801   33.5391   13.3046 C   0  0  0  0  0  0  0  0  0  0  0  0
   45.5043   36.8132   14.3415 C   0  0  0  0  0  0  0  0  0  0  0  0
   45.8543   35.0348   16.9659 C   0  0  0  0  0  0  0  0  0  0  0  0
   45.0300   35.4379   14.7223 C   0  0  2  0  0  0  0  0  0  0  0  0
   44.5605   35.1390   16.1290 C   0  0  1  0  0  0  0  0  0  0  0  0
   46.4942   35.7829   14.7988 C   0  0  2  0  0  0  0  0  0  0  0  0
   40.2292   33.6718   14.7680 C   0  0  0  0  0  0  0  0  0  0  0  0
   47.9442   40.3545   18.1062 C   0  0  0  0  0  0  0  0  0  0  0  0
   43.7270   33.8695   16.2090 C   0  0  0  0  0  0  0  0  0  0  0  0
   48.1775   39.4163   16.9335 C   0  0  0  0  0  0  0  0  0  0  0  0
   49.4986   38.6642   17.0774 C   0  0  0  0  0  0  0  0  0  0  0  0
   49.7421   37.7740   15.9636 N   0  0  0  0  0  0  0  0  0  0  0  0
   46.9183   35.6517   16.1660 N   0  0  0  0  0  0  0  0  0  0  0  0
   42.5423   34.0130   15.4279 N   0  0  0  0  0  0  0  0  0  0  0  0
   48.5237   35.7217   17.8396 O   0  0  0  0  0  0  0  0  0  0  0  0
   41.1394   32.6227   16.6665 O   0  0  0  0  0  0  0  0  0  0  0  0
   39.3941   34.6945   15.1706 F   0  0  0  0  0  0  0  0  0  0  0  0
   51.1440   36.8698   13.1578 H   0  0  0  0  0  0  0  0  0  0  0  0
   49.3880   35.0669   14.1705 H   0  0  0  0  0  0  0  0  0  0  0  0
   51.1727   38.9571   14.8971 H   0  0  0  0  0  0  0  0  0  0  0  0
   38.5387   32.6016   13.8426 H   0  0  0  0  0  0  0  0  0  0  0  0
   39.9887   31.5413   14.1408 H   0  0  0  0  0  0  0  0  0  0  0  0
   41.4477   33.1991   12.9562 H   0  0  0  0  0  0  0  0  0  0  0  0
   40.0000   34.2617   12.6562 H   0  0  0  0  0  0  0  0  0  0  0  0
   45.4993   37.0732   13.2898 H   0  0  0  0  0  0  0  0  0  0  0  0
   45.2798   37.6410   15.0032 H   0  0  0  0  0  0  0  0  0  0  0  0
   45.7644   35.5451   17.9304 H   0  0  0  0  0  0  0  0  0  0  0  0
   46.1513   33.9967   17.1538 H   0  0  0  0  0  0  0  0  0  0  0  0
   44.6943   34.7597   13.9520 H   0  0  0  0  0  0  0  0  0  0  0  0
   43.9607   35.9845   16.4888 H   0  0  0  0  0  0  0  0  0  0  0  0
   47.1449   35.3170   14.0686 H   0  0  0  0  0  0  0  0  0  0  0  0
   48.7607   41.0778   18.1981 H   0  0  0  0  0  0  0  0  0  0  0  0
   47.8861   39.7870   19.0403 H   0  0  0  0  0  0  0  0  0  0  0  0
   47.0070   40.9073   17.9856 H   0  0  0  0  0  0  0  0  0  0  0  0
   44.3372   33.0507   15.8262 H   0  0  0  0  0  0  0  0  0  0  0  0
   43.4732   33.7081   17.2573 H   0  0  0  0  0  0  0  0  0  0  0  0
   47.3447   38.7058   16.8682 H   0  0  0  0  0  0  0  0  0  0  0  0
   48.1726   39.9943   16.0015 H   0  0  0  0  0  0  0  0  0  0  0  0
   49.5107   38.0620   17.9937 H   0  0  0  0  0  0  0  0  0  0  0  0
   50.3434   39.3606   17.1377 H   0  0  0  0  0  0  0  0  0  0  0  0
   42.5785   34.6203   14.6036 H   0  0  0  0  0  0  0  0  0  0  0  0
  1  2  1  0  0  0  0
  1  3  2  0  0  0  0
  2  4  2  0  0  0  0
  3 19  1  0  0  0  0
  4  5  1  0  0  0  0
  4 19  1  0  0  0  0
  5 20  1  0  0  0  0
  5 22  2  0  0  0  0
  6 14  1  0  0  0  0
  6 21  1  0  0  0  0
  6 23  2  0  0  0  0
  7  8  1  0  0  0  0
  7 14  1  0  0  0  0
  8 14  1  0  0  0  0
  9 11  1  0  0  0  0
  9 13  1  0  0  0  0
 10 12  1  0  0  0  0
 10 20  1  0  0  0  0
 11 12  1  0  0  0  0
 11 13  1  0  0  0  0
 12 16  1  0  0  0  0
 13 20  1  0  0  0  0
 14 24  1  0  0  0  0
 15 17  1  0  0  0  0
 16 21  1  0  0  0  0
 17 18  1  0  0  0  0
 18 19  1  0  0  0  0
  1 25  1  0  0  0  0
  2 26  1  0  0  0  0
  3 27  1  0  0  0  0
  7 28  1  0  0  0  0
  7 29  1  0  0  0  0
  8 30  1  0  0  0  0
  8 31  1  0  0  0  0
  9 32  1  0  0  0  0
  9 33  1  0  0  0  0
 10 34  1  0  0  0  0
 10 35  1  0  0  0  0
 11 36  1  0  0  0  0
 12 37  1  0  0  0  0
 13 38  1  0  0  0  0
 15 39  1  0  0  0  0
 15 40  1  0  0  0  0
 15 41  1  0  0  0  0
 16 42  1  0  0  0  0
 16 43  1  0  0  0  0
 17 44  1  0  0  0  0
 17 45  1  0  0  0  0
 18 46  1  0  0  0  0
 18 47  1  0  0  0  0
 21 48  1  0  0  0  0
M  END
> <Chemgauss4 Score>
-6.980530261993

> <Number of Confs>
200

> <og_smiles_field>
CCCN1C=CC=C1C(=O)N1CC(CNC(=O)C2(F)CC2)C2CC21

$$$$

  -OEChem-03232314423D

 36 37  0     1  0  0  0  0  0999 V2000
   46.7995   35.7539   16.8169 C   0  0  0  0  0  0  0  0  0  0  0  0
   46.4347   35.6934   15.4766 C   0  0  0  0  0  0  0  0  0  0  0  0
   40.7092   34.2876   13.5572 C   0  0  0  0  0  0  0  0  0  0  0  0
   42.5775   34.1894   15.0686 C   0  0  0  0  0  0  0  0  0  0  0  0
   47.2297   38.0767   16.5412 C   0  0  0  0  0  0  0  0  0  0  0  0
   41.9642   34.7401   13.9488 C   0  0  0  0  0  0  0  0  0  0  0  0
   47.2058   36.9644   17.3671 C   0  0  0  0  0  0  0  0  0  0  0  0
   46.4929   36.8625   14.7353 C   0  0  0  0  0  0  0  0  0  0  0  0
   40.1144   33.2903   14.3132 C   0  0  0  0  0  0  0  0  0  0  0  0
   41.8990   33.1967   15.7570 C   0  0  0  0  0  0  0  0  0  0  0  0
   42.6478   35.8068   13.1746 C   0  0  0  0  0  0  0  0  0  0  0  0
   38.7677   32.7802   13.9223 C   0  0  0  0  0  0  0  0  0  0  0  0
   46.1035   36.8347   13.2760 C   0  0  0  0  0  0  0  0  0  0  0  0
   44.6110   37.1147   13.0696 C   0  0  2  0  0  0  0  0  0  0  0  0
   44.2135   38.4580   13.6510 C   0  0  0  0  0  0  0  0  0  0  0  0
   46.8825   38.0568   15.2348 N   0  0  0  0  0  0  0  0  0  0  0  0
   40.6790   32.7312   15.4069 N   0  0  0  0  0  0  0  0  0  0  0  0
   42.1634   36.3301   12.1832 O   0  0  0  0  0  0  0  0  0  0  0  0
   42.4816   32.6395   16.8651 O   0  0  0  0  0  0  0  0  0  0  0  0
   43.8555   36.0986   13.7266 O   0  0  0  0  0  0  0  0  0  0  0  0
   42.8847   38.6649   13.5174 F   0  0  0  0  0  0  0  0  0  0  0  0
   44.8462   39.4689   13.0161 F   0  0  0  0  0  0  0  0  0  0  0  0
   44.5149   38.5410   14.9643 F   0  0  0  0  0  0  0  0  0  0  0  0
   47.7078   37.0885   19.1780 Br  0  0  0  0  0  0  0  0  0  0  0  0
   46.7625   34.8503   17.4196 H   0  0  0  0  0  0  0  0  0  0  0  0
   46.1154   34.7549   15.0357 H   0  0  0  0  0  0  0  0  0  0  0  0
   40.2116   34.7024   12.6861 H   0  0  0  0  0  0  0  0  0  0  0  0
   43.5565   34.5258   15.3954 H   0  0  0  0  0  0  0  0  0  0  0  0
   47.5375   39.0509   16.9093 H   0  0  0  0  0  0  0  0  0  0  0  0
   38.8663   31.9361   13.2292 H   0  0  0  0  0  0  0  0  0  0  0  0
   38.1990   32.4462   14.7995 H   0  0  0  0  0  0  0  0  0  0  0  0
   38.1718   33.5630   13.4359 H   0  0  0  0  0  0  0  0  0  0  0  0
   46.3696   35.8517   12.8672 H   0  0  0  0  0  0  0  0  0  0  0  0
   46.7075   37.5717   12.7308 H   0  0  0  0  0  0  0  0  0  0  0  0
   44.3542   37.0890   12.0044 H   0  0  0  0  0  0  0  0  0  0  0  0
   43.3450   33.0470   17.0206 H   0  0  0  0  0  0  0  0  0  0  0  0
  1  2  1  0  0  0  0
  1  7  2  0  0  0  0
  2  8  2  0  0  0  0
  3  6  1  0  0  0  0
  3  9  2  0  0  0  0
  4  6  2  0  0  0  0
  4 10  1  0  0  0  0
  5  7  1  0  0  0  0
  5 16  2  0  0  0  0
  6 11  1  0  0  0  0
  7 24  1  0  0  0  0
  8 13  1  0  0  0  0
  8 16  1  0  0  0  0
  9 12  1  0  0  0  0
  9 17  1  0  0  0  0
 10 17  2  0  0  0  0
 10 19  1  0  0  0  0
 11 18  2  0  0  0  0
 11 20  1  0  0  0  0
 13 14  1  0  0  0  0
 14 15  1  0  0  0  0
 14 20  1  0  0  0  0
 15 21  1  0  0  0  0
 15 22  1  0  0  0  0
 15 23  1  0  0  0  0
  1 25  1  0  0  0  0
  2 26  1  0  0  0  0
  3 27  1  0  0  0  0
  4 28  1  0  0  0  0
  5 29  1  0  0  0  0
 12 30  1  0  0  0  0
 12 31  1  0  0  0  0
 12 32  1  0  0  0  0
 13 33  1  0  0  0  0
 13 34  1  0  0  0  0
 14 35  1  0  0  0  0
 19 36  1  0  0  0  0
M  END
> <Chemgauss4 Score>
-7.311974525452

> <Number of Confs>
200

> <og_smiles_field>
CC1=CC(C(=O)OC(CC2=CC=C(Br)C=N2)C(F)(F)F)=CC(O)=N1

$$$$

  -OEChem-03232314423D

 41 43  0     1  0  0  0  0  0999 V2000
   39.5893   32.4014   12.2658 C   0  0  0  0  0  0  0  0  0  0  0  0
   38.0693   33.2995   13.8990 C   0  0  0  0  0  0  0  0  0  0  0  0
   38.4826   32.0233   11.5228 C   0  0  0  0  0  0  0  0  0  0  0  0
   37.0306   32.8814   13.0828 C   0  0  0  0  0  0  0  0  0  0  0  0
   41.7016   33.5596   15.9428 C   0  0  0  0  0  0  0  0  0  0  0  0
   39.3701   33.0512   13.4753 C   0  0  0  0  0  0  0  0  0  0  0  0
   42.2772   34.4104   14.9801 C   0  0  0  0  0  0  0  0  0  0  0  0
   41.4393   34.3185   13.8958 C   0  0  0  0  0  0  0  0  0  0  0  0
   44.5873   34.9224   15.8423 C   0  0  0  0  0  0  0  0  0  0  0  0
   48.2237   37.6857   15.6978 C   0  0  0  0  0  0  0  0  0  0  0  0
   48.7702   37.6507   17.1200 C   0  0  0  0  0  0  0  0  0  0  0  0
   47.4308   35.2800   17.2952 C   0  0  0  0  0  0  0  0  0  0  0  0
   47.0488   35.5218   15.8292 C   0  0  1  0  0  0  0  0  0  0  0  0
   45.6110   36.0269   15.6610 C   0  0  0  0  0  0  0  0  0  0  0  0
   41.4964   34.9700   12.5707 C   0  0  0  0  0  0  0  0  0  0  0  0
   37.2043   32.2473   11.9015 N   0  0  0  0  0  0  0  0  0  0  0  0
   40.5843   32.9707   15.5083 N   0  0  0  0  0  0  0  0  0  0  0  0
   40.4510   33.4523   14.2607 N   0  0  0  0  0  0  0  0  0  0  0  0
   48.0259   36.3573   15.1186 N   0  0  0  0  0  0  0  0  0  0  0  0
   43.4520   35.1927   15.0836 N   0  0  0  0  0  0  0  0  0  0  0  0
   44.7865   33.9529   16.5668 O   0  0  0  0  0  0  0  0  0  0  0  0
   42.5704   35.8064   12.4024 F   0  0  0  0  0  0  0  0  0  0  0  0
   41.5751   34.0941   11.5184 F   0  0  0  0  0  0  0  0  0  0  0  0
   40.3989   35.7458   12.3038 F   0  0  0  0  0  0  0  0  0  0  0  0
   47.6277   36.8120   18.2502 S   0  0  0  0  0  0  0  0  0  0  0  0
   40.5904   32.1909   11.9037 H   0  0  0  0  0  0  0  0  0  0  0  0
   37.8605   33.8040   14.8368 H   0  0  0  0  0  0  0  0  0  0  0  0
   38.5997   31.5134   10.5722 H   0  0  0  0  0  0  0  0  0  0  0  0
   35.9975   33.0512   13.3678 H   0  0  0  0  0  0  0  0  0  0  0  0
   42.0474   33.3422   16.9435 H   0  0  0  0  0  0  0  0  0  0  0  0
   47.2498   38.1938   15.7122 H   0  0  0  0  0  0  0  0  0  0  0  0
   48.8654   38.2944   15.0441 H   0  0  0  0  0  0  0  0  0  0  0  0
   49.7247   37.1141   17.1371 H   0  0  0  0  0  0  0  0  0  0  0  0
   48.9592   38.6639   17.4925 H   0  0  0  0  0  0  0  0  0  0  0  0
   46.6818   34.6454   17.8006 H   0  0  0  0  0  0  0  0  0  0  0  0
   48.3843   34.7282   17.3485 H   0  0  0  0  0  0  0  0  0  0  0  0
   47.0646   34.4914   15.3092 H   0  0  0  0  0  0  0  0  0  0  0  0
   45.5011   36.4537   14.6617 H   0  0  0  0  0  0  0  0  0  0  0  0
   45.4232   36.8110   16.3977 H   0  0  0  0  0  0  0  0  0  0  0  0
   47.7338   36.4582   14.1364 H   0  0  0  0  0  0  0  0  0  0  0  0
   43.4537   36.0495   14.5341 H   0  0  0  0  0  0  0  0  0  0  0  0
  1  3  1  0  0  0  0
  1  6  2  0  0  0  0
  2  4  2  0  0  0  0
  2  6  1  0  0  0  0
  3 16  2  0  0  0  0
  4 16  1  0  0  0  0
  5  7  1  0  0  0  0
  5 17  2  0  0  0  0
  6 18  1  0  0  0  0
  7  8  2  0  0  0  0
  7 20  1  0  0  0  0
  8 15  1  0  0  0  0
  8 18  1  0  0  0  0
  9 14  1  0  0  0  0
  9 20  1  0  0  0  0
  9 21  2  0  0  0  0
 10 11  1  0  0  0  0
 10 19  1  0  0  0  0
 11 25  1  0  0  0  0
 12 13  1  0  0  0  0
 12 25  1  0  0  0  0
 13 14  1  0  0  0  0
 13 19  1  0  0  0  0
 15 22  1  0  0  0  0
 15 23  1  0  0  0  0
 15 24  1  0  0  0  0
 17 18  1  0  0  0  0
  1 26  1  0  0  0  0
  2 27  1  0  0  0  0
  3 28  1  0  0  0  0
  4 29  1  0  0  0  0
  5 30  1  0  0  0  0
 10 31  1  0  0  0  0
 10 32  1  0  0  0  0
 11 33  1  0  0  0  0
 11 34  1  0  0  0  0
 12 35  1  0  0  0  0
 12 36  1  0  0  0  0
 13 37  1  0  0  0  0
 14 38  1  0  0  0  0
 14 39  1  0  0  0  0
 19 40  1  0  0  0  0
 20 41  1  0  0  0  0
M  END
> <Chemgauss4 Score>
-7.503178596497

> <Number of Confs>
70

> <og_smiles_field>
O=C(CC1CSCCN1)NC1=C(C(F)(F)F)N(C2=CC=NC=C2)N=C1

$$$$

  -OEChem-03232314423D

 55 57  0     1  0  0  0  0  0999 V2000
   46.4423   35.9254   16.2812 C   0  0  0  0  0  0  0  0  0  0  0  0
   45.5936   35.6982   15.2271 C   0  0  0  0  0  0  0  0  0  0  0  0
   40.6694   33.2716   14.4810 C   0  0  0  0  0  0  0  0  0  0  0  0
   49.3312   37.9568   15.9703 C   0  0  0  0  0  0  0  0  0  0  0  0
   43.9202   34.6324   13.6419 C   0  0  0  0  0  0  0  0  0  0  0  0
   43.6418   34.3550   16.1415 C   0  0  0  0  0  0  0  0  0  0  0  0
   39.8718   34.8601   12.7649 C   0  0  0  0  0  0  0  0  0  0  0  0
   38.7655   32.6112   13.0323 C   0  0  0  0  0  0  0  0  0  0  0  0
   42.9816   33.4439   13.4355 C   0  0  0  0  0  0  0  0  0  0  0  0
   42.7116   33.1732   15.8742 C   0  0  0  0  0  0  0  0  0  0  0  0
   39.1144   35.0185   11.4445 C   0  0  0  0  0  0  0  0  0  0  0  0
   44.6548   34.5353   14.9937 C   0  0  0  0  0  0  0  0  0  0  0  0
   40.0817   33.3864   13.1084 C   0  0  2  0  0  0  0  0  0  0  0  0
   38.0503   32.8534   11.6903 C   0  0  1  0  0  0  0  0  0  0  0  0
   36.7625   32.0267   11.6100 C   0  0  0  0  0  0  0  0  0  0  0  0
   47.5306   39.2175   17.1667 C   0  0  0  0  0  0  0  0  0  0  0  0
   36.8207   34.9319   12.2258 C   0  0  0  0  0  0  0  0  0  0  0  0
   48.0177   37.8341   16.7289 C   0  0  1  0  0  0  0  0  0  0  0  0
   45.6899   36.7256   14.3300 N   0  0  0  0  0  0  0  0  0  0  0  0
   46.5814   37.5930   14.7968 N   0  0  0  0  0  0  0  0  0  0  0  0
   47.0314   37.1113   15.9668 N   0  0  0  0  0  0  0  0  0  0  0  0
   42.0605   33.3068   14.5699 N   0  0  0  0  0  0  0  0  0  0  0  0
   37.8389   34.2866   11.3981 N   0  0  1  0  0  0  0  0  0  0  0  0
   39.9162   33.1555   15.4512 O   0  0  0  0  0  0  0  0  0  0  0  0
   49.5330   37.5504   14.8333 O   0  0  0  0  0  0  0  0  0  0  0  0
   50.2896   38.5821   16.7039 O   0  0  0  0  0  0  0  0  0  0  0  0
   46.6672   35.3752   17.1839 H   0  0  0  0  0  0  0  0  0  0  0  0
   44.6486   34.6677   12.8224 H   0  0  0  0  0  0  0  0  0  0  0  0
   43.3436   35.5653   13.5886 H   0  0  0  0  0  0  0  0  0  0  0  0
   43.0444   35.2681   16.2686 H   0  0  0  0  0  0  0  0  0  0  0  0
   44.1726   34.1942   17.0882 H   0  0  0  0  0  0  0  0  0  0  0  0
   40.8403   35.3702   12.6965 H   0  0  0  0  0  0  0  0  0  0  0  0
   39.3166   35.3619   13.5691 H   0  0  0  0  0  0  0  0  0  0  0  0
   38.9705   31.5432   13.1611 H   0  0  0  0  0  0  0  0  0  0  0  0
   38.1123   32.9046   13.8622 H   0  0  0  0  0  0  0  0  0  0  0  0
   42.4519   33.5624   12.4887 H   0  0  0  0  0  0  0  0  0  0  0  0
   43.5560   32.5120   13.3702 H   0  0  0  0  0  0  0  0  0  0  0  0
   43.2771   32.2341   15.8643 H   0  0  0  0  0  0  0  0  0  0  0  0
   41.9697   33.0998   16.6755 H   0  0  0  0  0  0  0  0  0  0  0  0
   38.9280   36.0985   11.2983 H   0  0  0  0  0  0  0  0  0  0  0  0
   39.7704   34.7075   10.6085 H   0  0  0  0  0  0  0  0  0  0  0  0
   45.2955   33.6225   14.9636 H   0  0  0  0  0  0  0  0  0  0  0  0
   40.8054   32.9476   12.4024 H   0  0  0  0  0  0  0  0  0  0  0  0
   38.7312   32.4415   10.8779 H   0  0  0  0  0  0  0  0  0  0  0  0
   36.0638   32.3725   12.3662 H   0  0  0  0  0  0  0  0  0  0  0  0
   36.9945   30.9797   11.7818 H   0  0  0  0  0  0  0  0  0  0  0  0
   36.3192   32.1436   10.6254 H   0  0  0  0  0  0  0  0  0  0  0  0
   47.3086   39.8515   16.3012 H   0  0  0  0  0  0  0  0  0  0  0  0
   46.6160   39.1374   17.7645 H   0  0  0  0  0  0  0  0  0  0  0  0
   48.2699   39.7342   17.7887 H   0  0  0  0  0  0  0  0  0  0  0  0
   35.8832   34.3596   12.1674 H   0  0  0  0  0  0  0  0  0  0  0  0
   37.1649   34.9662   13.2700 H   0  0  0  0  0  0  0  0  0  0  0  0
   36.6482   35.9559   11.8628 H   0  0  0  0  0  0  0  0  0  0  0  0
   48.2223   37.2496   17.6364 H   0  0  0  0  0  0  0  0  0  0  0  0
   51.1577   38.6863   16.2594 H   0  0  0  0  0  0  0  0  0  0  0  0
  1  2  2  0  0  0  0
  1 21  1  0  0  0  0
  2 12  1  0  0  0  0
  2 19  1  0  0  0  0
  3 13  1  0  0  0  0
  3 22  1  0  0  0  0
  3 24  2  0  0  0  0
  4 18  1  0  0  0  0
  4 25  2  0  0  0  0
  4 26  1  0  0  0  0
  5  9  1  0  0  0  0
  5 12  1  0  0  0  0
  6 10  1  0  0  0  0
  6 12  1  0  0  0  0
  7 11  1  0  0  0  0
  7 13  1  0  0  0  0
  8 13  1  0  0  0  0
  8 14  1  0  0  0  0
  9 22  1  0  0  0  0
 10 22  1  0  0  0  0
 11 23  1  0  0  0  0
 14 15  1  0  0  0  0
 14 23  1  0  0  0  0
 16 18  1  0  0  0  0
 17 23  1  0  0  0  0
 18 21  1  0  0  0  0
 19 20  2  0  0  0  0
 20 21  1  0  0  0  0
  1 27  1  0  0  0  0
  5 28  1  0  0  0  0
  5 29  1  0  0  0  0
  6 30  1  0  0  0  0
  6 31  1  0  0  0  0
  7 32  1  0  0  0  0
  7 33  1  0  0  0  0
  8 34  1  0  0  0  0
  8 35  1  0  0  0  0
  9 36  1  0  0  0  0
  9 37  1  0  0  0  0
 10 38  1  0  0  0  0
 10 39  1  0  0  0  0
 11 40  1  0  0  0  0
 11 41  1  0  0  0  0
 12 42  1  0  0  0  0
 13 43  1  0  0  0  0
 14 44  1  0  0  0  0
 15 45  1  0  0  0  0
 15 46  1  0  0  0  0
 15 47  1  0  0  0  0
 16 48  1  0  0  0  0
 16 49  1  0  0  0  0
 16 50  1  0  0  0  0
 17 51  1  0  0  0  0
 17 52  1  0  0  0  0
 17 53  1  0  0  0  0
 18 54  1  0  0  0  0
 26 55  1  0  0  0  0
M  END
> <Chemgauss4 Score>
-5.915262222290

> <Number of Confs>
200

> <og_smiles_field>
CC(C(=O)O)N1C=C(C2CCN(C(=O)[C@@H]3CCN(C)[C@H](C)C3)CC2)N=N1

$$$$

  -OEChem-03232314423D

 59 61  0     1  0  0  0  0  0999 V2000
   40.0261   32.6501   12.4443 C   0  0  0  0  0  0  0  0  0  0  0  0
   41.2151   32.8790   13.0926 C   0  0  0  0  0  0  0  0  0  0  0  0
   40.8380   33.2776   14.3890 C   0  0  0  0  0  0  0  0  0  0  0  0
   41.7167   33.6480   15.5098 C   0  0  0  0  0  0  0  0  0  0  0  0
   48.5944   35.6984   16.0453 C   0  0  0  0  0  0  0  0  0  0  0  0
   45.4587   36.3267   17.0300 C   0  0  0  0  0  0  0  0  0  0  0  0
   43.9646   35.9841   16.9963 C   0  0  0  0  0  0  0  0  0  0  0  0
   45.0584   34.8500   15.1725 C   0  0  0  0  0  0  0  0  0  0  0  0
   51.1459   36.2324   15.7281 C   0  0  0  0  0  0  0  0  0  0  0  0
   50.2834   35.3898   14.0596 C   0  0  0  0  0  0  0  0  0  0  0  0
   46.1453   35.2822   16.1497 C   0  0  1  0  0  0  0  0  0  0  0  0
   43.8371   34.7669   16.0805 C   0  0  2  0  0  0  0  0  0  0  0  0
   49.6711   36.2852   15.1939 C   0  0  0  0  0  0  0  0  0  0  0  0
   42.5732   32.7351   12.5416 C   0  0  0  0  0  0  0  0  0  0  0  0
   49.3544   38.7781   16.9500 C   0  0  0  0  0  0  0  0  0  0  0  0
   48.2760   39.9129   14.9974 C   0  0  0  0  0  0  0  0  0  0  0  0
   37.6239   32.8168   13.1380 C   0  0  0  0  0  0  0  0  0  0  0  0
   42.3248   35.8851   14.4801 C   0  0  0  0  0  0  0  0  0  0  0  0
   49.3544   37.6998   14.6430 C   0  0  0  0  0  0  0  0  0  0  0  0
   48.5879   38.5614   15.6445 C   0  0  0  0  0  0  0  0  0  0  0  0
   39.5130   33.3018   14.5561 N   0  0  0  0  0  0  0  0  0  0  0  0
   39.0472   32.9155   13.3561 N   0  0  0  0  0  0  0  0  0  0  0  0
   47.3212   35.7844   15.4998 N   0  0  0  0  0  0  0  0  0  0  0  0
   42.5981   34.7375   15.3587 N   0  0  0  0  0  0  0  0  0  0  0  0
   41.6079   32.9731   16.5329 O   0  0  0  0  0  0  0  0  0  0  0  0
   48.8840   35.1969   17.1252 O   0  0  0  0  0  0  0  0  0  0  0  0
   51.6382   35.6151   14.5153 O   0  0  0  0  0  0  0  0  0  0  0  0
   39.7988   32.3291   11.4368 H   0  0  0  0  0  0  0  0  0  0  0  0
   45.6049   37.3406   16.6375 H   0  0  0  0  0  0  0  0  0  0  0  0
   45.8540   36.3101   18.0511 H   0  0  0  0  0  0  0  0  0  0  0  0
   43.5775   35.7697   17.9981 H   0  0  0  0  0  0  0  0  0  0  0  0
   43.4056   36.8433   16.6055 H   0  0  0  0  0  0  0  0  0  0  0  0
   44.9132   35.6057   14.3898 H   0  0  0  0  0  0  0  0  0  0  0  0
   45.2866   33.8919   14.6951 H   0  0  0  0  0  0  0  0  0  0  0  0
   51.6392   37.1889   15.9256 H   0  0  0  0  0  0  0  0  0  0  0  0
   51.2866   35.5709   16.5895 H   0  0  0  0  0  0  0  0  0  0  0  0
   50.0165   34.3301   14.1328 H   0  0  0  0  0  0  0  0  0  0  0  0
   50.1411   35.7256   13.0280 H   0  0  0  0  0  0  0  0  0  0  0  0
   46.4553   34.4271   16.7627 H   0  0  0  0  0  0  0  0  0  0  0  0
   43.8827   33.8487   16.6788 H   0  0  0  0  0  0  0  0  0  0  0  0
   42.9217   33.6768   12.0838 H   0  0  0  0  0  0  0  0  0  0  0  0
   43.3089   32.4492   13.3144 H   0  0  0  0  0  0  0  0  0  0  0  0
   42.6280   31.9490   11.7673 H   0  0  0  0  0  0  0  0  0  0  0  0
   50.3195   39.2627   16.7680 H   0  0  0  0  0  0  0  0  0  0  0  0
   49.5398   37.8307   17.4651 H   0  0  0  0  0  0  0  0  0  0  0  0
   48.7819   39.4126   17.6353 H   0  0  0  0  0  0  0  0  0  0  0  0
   49.1941   40.4491   14.7342 H   0  0  0  0  0  0  0  0  0  0  0  0
   47.6968   40.5461   15.6778 H   0  0  0  0  0  0  0  0  0  0  0  0
   47.6866   39.7806   14.0839 H   0  0  0  0  0  0  0  0  0  0  0  0
   37.3123   31.8018   13.3984 H   0  0  0  0  0  0  0  0  0  0  0  0
   37.1076   33.5481   13.7661 H   0  0  0  0  0  0  0  0  0  0  0  0
   37.4037   33.0279   12.0878 H   0  0  0  0  0  0  0  0  0  0  0  0
   41.7868   36.6604   15.0453 H   0  0  0  0  0  0  0  0  0  0  0  0
   43.2748   36.2959   14.1075 H   0  0  0  0  0  0  0  0  0  0  0  0
   41.7086   35.5572   13.6299 H   0  0  0  0  0  0  0  0  0  0  0  0
   50.2977   38.1620   14.3606 H   0  0  0  0  0  0  0  0  0  0  0  0
   48.7664   37.5577   13.7380 H   0  0  0  0  0  0  0  0  0  0  0  0
   47.6335   38.0753   15.8839 H   0  0  0  0  0  0  0  0  0  0  0  0
   47.2158   36.2290   14.5871 H   0  0  0  0  0  0  0  0  0  0  0  0
  1  2  2  0  0  0  0
  1 22  1  0  0  0  0
  2  3  1  0  0  0  0
  2 14  1  0  0  0  0
  3  4  1  0  0  0  0
  3 21  2  0  0  0  0
  4 24  1  0  0  0  0
  4 25  2  0  0  0  0
  5 13  1  0  0  0  0
  5 23  1  0  0  0  0
  5 26  2  0  0  0  0
  6  7  1  0  0  0  0
  6 11  1  0  0  0  0
  7 12  1  0  0  0  0
  8 11  1  0  0  0  0
  8 12  1  0  0  0  0
  9 13  1  0  0  0  0
  9 27  1  0  0  0  0
 10 13  1  0  0  0  0
 10 27  1  0  0  0  0
 11 23  1  0  0  0  0
 12 24  1  0  0  0  0
 13 19  1  0  0  0  0
 15 20  1  0  0  0  0
 16 20  1  0  0  0  0
 17 22  1  0  0  0  0
 18 24  1  0  0  0  0
 19 20  1  0  0  0  0
 21 22  1  0  0  0  0
  1 28  1  0  0  0  0
  6 29  1  0  0  0  0
  6 30  1  0  0  0  0
  7 31  1  0  0  0  0
  7 32  1  0  0  0  0
  8 33  1  0  0  0  0
  8 34  1  0  0  0  0
  9 35  1  0  0  0  0
  9 36  1  0  0  0  0
 10 37  1  0  0  0  0
 10 38  1  0  0  0  0
 11 39  1  0  0  0  0
 12 40  1  0  0  0  0
 14 41  1  0  0  0  0
 14 42  1  0  0  0  0
 14 43  1  0  0  0  0
 15 44  1  0  0  0  0
 15 45  1  0  0  0  0
 15 46  1  0  0  0  0
 16 47  1  0  0  0  0
 16 48  1  0  0  0  0
 16 49  1  0  0  0  0
 17 50  1  0  0  0  0
 17 51  1  0  0  0  0
 17 52  1  0  0  0  0
 18 53  1  0  0  0  0
 18 54  1  0  0  0  0
 18 55  1  0  0  0  0
 19 56  1  0  0  0  0
 19 57  1  0  0  0  0
 20 58  1  0  0  0  0
 23 59  1  0  0  0  0
M  END
> <Chemgauss4 Score>
-6.091347217560

> <Number of Confs>
200

> <og_smiles_field>
CC1=CN(C)N=C1C(=O)N(C)C1CCC(NC(=O)C2(CC(C)C)COC2)C1

$$$$

  -OEChem-03232314423D

 48 50  0     0  0  0  0  0  0999 V2000
   47.7513   39.8095   15.6226 C   0  0  0  0  0  0  0  0  0  0  0  0
   48.8762   39.3798   16.3266 C   0  0  0  0  0  0  0  0  0  0  0  0
   46.8523   38.8757   15.1072 C   0  0  0  0  0  0  0  0  0  0  0  0
   49.1022   38.0164   16.5152 C   0  0  0  0  0  0  0  0  0  0  0  0
   40.0144   33.1791   14.3117 C   0  0  0  0  0  0  0  0  0  0  0  0
   47.0783   37.5122   15.2958 C   0  0  0  0  0  0  0  0  0  0  0  0
   48.2032   37.0825   15.9998 C   0  0  0  0  0  0  0  0  0  0  0  0
   41.4026   32.9481   14.2780 C   0  0  0  0  0  0  0  0  0  0  0  0
   39.5790   32.8384   13.0544 C   0  0  0  0  0  0  0  0  0  0  0  0
   46.1071   36.5686   14.7364 C   0  0  0  0  0  0  0  0  0  0  0  0
   42.3620   33.1520   15.3571 C   0  0  0  0  0  0  0  0  0  0  0  0
   44.4981   35.8062   16.4808 C   0  0  0  0  0  0  0  0  0  0  0  0
   43.7228   36.2810   14.1033 C   0  0  0  0  0  0  0  0  0  0  0  0
   44.4023   34.3120   16.1712 C   0  0  0  0  0  0  0  0  0  0  0  0
   43.6666   34.7723   13.8683 C   0  0  0  0  0  0  0  0  0  0  0  0
   44.6745   36.6715   15.2338 C   0  0  0  0  0  0  0  0  0  0  0  0
   38.2310   32.8581   12.4577 C   0  0  0  0  0  0  0  0  0  0  0  0
   40.7491   31.9829   11.0016 C   0  0  0  0  0  0  0  0  0  0  0  0
   40.2731   30.5449   10.8448 C   0  0  0  0  0  0  0  0  0  0  0  0
   41.8214   32.4955   13.0932 N   0  0  0  0  0  0  0  0  0  0  0  0
   40.6896   32.4393   12.3708 N   0  0  0  0  0  0  0  0  0  0  0  0
   43.4093   34.0626   15.1270 N   0  0  0  0  0  0  0  0  0  0  0  0
   46.3736   35.7070   13.9050 O   0  0  0  0  0  0  0  0  0  0  0  0
   42.2375   32.5403   16.4196 O   0  0  0  0  0  0  0  0  0  0  0  0
   41.0646   29.6872   11.6567 O   0  0  0  0  0  0  0  0  0  0  0  0
   48.5199   35.4042   16.2555 Cl  0  0  0  0  0  0  0  0  0  0  0  0
   47.5757   40.8712   15.4757 H   0  0  0  0  0  0  0  0  0  0  0  0
   49.5760   40.1070   16.7279 H   0  0  0  0  0  0  0  0  0  0  0  0
   45.9796   39.2239   14.5604 H   0  0  0  0  0  0  0  0  0  0  0  0
   49.9836   37.6982   17.0662 H   0  0  0  0  0  0  0  0  0  0  0  0
   39.4124   33.5426   15.1323 H   0  0  0  0  0  0  0  0  0  0  0  0
   43.5769   36.1130   16.9933 H   0  0  0  0  0  0  0  0  0  0  0  0
   45.3209   35.9746   17.1862 H   0  0  0  0  0  0  0  0  0  0  0  0
   44.0115   36.7801   13.1703 H   0  0  0  0  0  0  0  0  0  0  0  0
   42.7137   36.6340   14.3521 H   0  0  0  0  0  0  0  0  0  0  0  0
   45.3637   33.9287   15.8099 H   0  0  0  0  0  0  0  0  0  0  0  0
   44.1548   33.7608   17.0840 H   0  0  0  0  0  0  0  0  0  0  0  0
   42.9051   34.5518   13.1160 H   0  0  0  0  0  0  0  0  0  0  0  0
   44.6199   34.4023   13.4739 H   0  0  0  0  0  0  0  0  0  0  0  0
   44.5279   37.7151   15.4864 H   0  0  0  0  0  0  0  0  0  0  0  0
   38.0198   33.8301   11.9810 H   0  0  0  0  0  0  0  0  0  0  0  0
   38.1052   32.0754   11.6893 H   0  0  0  0  0  0  0  0  0  0  0  0
   37.4417   32.6759   13.2080 H   0  0  0  0  0  0  0  0  0  0  0  0
   40.1426   32.6683   10.3982 H   0  0  0  0  0  0  0  0  0  0  0  0
   41.7909   32.0798   10.6752 H   0  0  0  0  0  0  0  0  0  0  0  0
   39.2347   30.4599   11.1803 H   0  0  0  0  0  0  0  0  0  0  0  0
   40.3383   30.2049    9.8062 H   0  0  0  0  0  0  0  0  0  0  0  0
   40.7265   28.7868   11.5248 H   0  0  0  0  0  0  0  0  0  0  0  0
  1  2  2  0  0  0  0
  1  3  1  0  0  0  0
  2  4  1  0  0  0  0
  3  6  2  0  0  0  0
  4  7  2  0  0  0  0
  5  8  1  0  0  0  0
  5  9  2  0  0  0  0
  6  7  1  0  0  0  0
  6 10  1  0  0  0  0
  7 26  1  0  0  0  0
  8 11  1  0  0  0  0
  8 20  2  0  0  0  0
  9 17  1  0  0  0  0
  9 21  1  0  0  0  0
 10 16  1  0  0  0  0
 10 23  2  0  0  0  0
 11 22  1  0  0  0  0
 11 24  2  0  0  0  0
 12 14  1  0  0  0  0
 12 16  1  0  0  0  0
 13 15  1  0  0  0  0
 13 16  1  0  0  0  0
 14 22  1  0  0  0  0
 15 22  1  0  0  0  0
 18 19  1  0  0  0  0
 18 21  1  0  0  0  0
 19 25  1  0  0  0  0
 20 21  1  0  0  0  0
  1 27  1  0  0  0  0
  2 28  1  0  0  0  0
  3 29  1  0  0  0  0
  4 30  1  0  0  0  0
  5 31  1  0  0  0  0
 12 32  1  0  0  0  0
 12 33  1  0  0  0  0
 13 34  1  0  0  0  0
 13 35  1  0  0  0  0
 14 36  1  0  0  0  0
 14 37  1  0  0  0  0
 15 38  1  0  0  0  0
 15 39  1  0  0  0  0
 16 40  1  0  0  0  0
 17 41  1  0  0  0  0
 17 42  1  0  0  0  0
 17 43  1  0  0  0  0
 18 44  1  0  0  0  0
 18 45  1  0  0  0  0
 19 46  1  0  0  0  0
 19 47  1  0  0  0  0
 25 48  1  0  0  0  0
M  END
> <Chemgauss4 Score>
-7.096381187439

> <Number of Confs>
200

> <og_smiles_field>
CC1=CC(C(=O)N2CCC(C(=O)C3=CC=CC=C3Cl)CC2)=NN1CCO

$$$$

  -OEChem-03232314423D

 42 44  0     1  0  0  0  0  0999 V2000
   47.7120   37.7727   15.0922 C   0  0  0  0  0  0  0  0  0  0  0  0
   48.3368   37.8503   16.3412 C   0  0  0  0  0  0  0  0  0  0  0  0
   42.8050   35.0425   11.3011 C   0  0  0  0  0  0  0  0  0  0  0  0
   42.2319   33.8929   11.8953 C   0  0  0  0  0  0  0  0  0  0  0  0
   46.6936   36.3539   17.3328 C   0  0  0  0  0  0  0  0  0  0  0  0
   46.0549   36.2657   16.0846 C   0  0  0  0  0  0  0  0  0  0  0  0
   46.5728   36.9696   15.0031 C   0  0  0  0  0  0  0  0  0  0  0  0
   47.8379   37.1538   17.4436 C   0  0  0  0  0  0  0  0  0  0  0  0
   44.9252   35.6011   15.5607 C   0  0  0  0  0  0  0  0  0  0  0  0
   42.1311   36.1204   11.8264 C   0  0  0  0  0  0  0  0  0  0  0  0
   41.2487   34.3502   12.7416 C   0  0  0  0  0  0  0  0  0  0  0  0
   41.7487   33.6892   15.7940 C   0  0  0  0  0  0  0  0  0  0  0  0
   42.2414   37.5719   11.6239 C   0  0  0  0  0  0  0  0  0  0  0  0
   43.9776   34.6903   16.2864 C   0  0  0  0  0  0  0  0  0  0  0  0
   40.4091   34.0530   15.1600 C   0  0  0  0  0  0  0  0  0  0  0  0
   40.2616   33.6475   13.6741 C   0  0  1  0  0  0  0  0  0  0  0  0
   38.8307   33.9270   13.1993 C   0  0  0  0  0  0  0  0  0  0  0  0
   44.7316   35.8517   14.2639 N   0  0  0  0  0  0  0  0  0  0  0  0
   45.7420   36.6811   13.9542 N   0  0  0  0  0  0  0  0  0  0  0  0
   42.6426   34.7494   15.7362 N   0  0  0  0  0  0  0  0  0  0  0  0
   41.9808   32.5988   16.3083 O   0  0  0  0  0  0  0  0  0  0  0  0
   41.1809   35.7070   12.7055 O   0  0  0  0  0  0  0  0  0  0  0  0
   40.4397   32.2249   13.6070 O   0  0  0  0  0  0  0  0  0  0  0  0
   38.6278   33.4765   11.9406 F   0  0  0  0  0  0  0  0  0  0  0  0
   38.5420   35.2470   13.2135 F   0  0  0  0  0  0  0  0  0  0  0  0
   37.9267   33.3107   13.9960 F   0  0  0  0  0  0  0  0  0  0  0  0
   48.6395   37.2793   18.9642 Cl  0  0  0  0  0  0  0  0  0  0  0  0
   48.0975   38.3130   14.2348 H   0  0  0  0  0  0  0  0  0  0  0  0
   49.2266   38.4689   16.4395 H   0  0  0  0  0  0  0  0  0  0  0  0
   43.6091   35.0784   10.5800 H   0  0  0  0  0  0  0  0  0  0  0  0
   42.5041   32.8610   11.7256 H   0  0  0  0  0  0  0  0  0  0  0  0
   46.3047   35.8111   18.1899 H   0  0  0  0  0  0  0  0  0  0  0  0
   41.5874   37.9157   10.8028 H   0  0  0  0  0  0  0  0  0  0  0  0
   41.9641   38.1446   12.5282 H   0  0  0  0  0  0  0  0  0  0  0  0
   43.2731   37.8843   11.3767 H   0  0  0  0  0  0  0  0  0  0  0  0
   44.3204   33.6514   16.2288 H   0  0  0  0  0  0  0  0  0  0  0  0
   43.9144   34.9536   17.3474 H   0  0  0  0  0  0  0  0  0  0  0  0
   40.2463   35.1297   15.2896 H   0  0  0  0  0  0  0  0  0  0  0  0
   39.6441   33.5390   15.7581 H   0  0  0  0  0  0  0  0  0  0  0  0
   45.8100   37.0163   13.0013 H   0  0  0  0  0  0  0  0  0  0  0  0
   42.3438   35.6090   15.2850 H   0  0  0  0  0  0  0  0  0  0  0  0
   41.3513   32.0575   13.8824 H   0  0  0  0  0  0  0  0  0  0  0  0
  1  2  1  0  0  0  0
  1  7  2  0  0  0  0
  2  8  2  0  0  0  0
  3  4  1  0  0  0  0
  3 10  2  0  0  0  0
  4 11  2  0  0  0  0
  5  6  2  0  0  0  0
  5  8  1  0  0  0  0
  6  7  1  0  0  0  0
  6  9  1  0  0  0  0
  7 19  1  0  0  0  0
  8 27  1  0  0  0  0
  9 14  1  0  0  0  0
  9 18  2  0  0  0  0
 10 13  1  0  0  0  0
 10 22  1  0  0  0  0
 11 16  1  0  0  0  0
 11 22  1  0  0  0  0
 12 15  1  0  0  0  0
 12 20  1  0  0  0  0
 12 21  2  0  0  0  0
 14 20  1  0  0  0  0
 15 16  1  0  0  0  0
 16 17  1  0  0  0  0
 16 23  1  0  0  0  0
 17 24  1  0  0  0  0
 17 25  1  0  0  0  0
 17 26  1  0  0  0  0
 18 19  1  0  0  0  0
  1 28  1  0  0  0  0
  2 29  1  0  0  0  0
  3 30  1  0  0  0  0
  4 31  1  0  0  0  0
  5 32  1  0  0  0  0
 13 33  1  0  0  0  0
 13 34  1  0  0  0  0
 13 35  1  0  0  0  0
 14 36  1  0  0  0  0
 14 37  1  0  0  0  0
 15 38  1  0  0  0  0
 15 39  1  0  0  0  0
 19 40  1  0  0  0  0
 20 41  1  0  0  0  0
 23 42  1  0  0  0  0
M  END
> <Chemgauss4 Score>
-6.478420257568

> <Number of Confs>
200

> <og_smiles_field>
CC1=CC=C(C(O)(CC(=O)NCC2=NNC3=CC=C(Cl)C=C23)C(F)(F)F)O1

$$$$

  -OEChem-03232314423D

 55 58  0     1  0  0  0  0  0999 V2000
   48.3262   36.8241   15.5684 C   0  0  0  0  0  0  0  0  0  0  0  0
   49.1111   38.3214   17.1635 C   0  0  0  0  0  0  0  0  0  0  0  0
   49.1948   37.9182   15.8490 C   0  0  0  0  0  0  0  0  0  0  0  0
   47.6118   36.4327   16.6794 C   0  0  0  0  0  0  0  0  0  0  0  0
   46.6189   35.3513   16.8057 C   0  0  0  0  0  0  0  0  0  0  0  0
   41.4953   33.2941   14.8970 C   0  0  0  0  0  0  0  0  0  0  0  0
   39.4481   32.0319   11.8613 C   0  0  0  0  0  0  0  0  0  0  0  0
   38.7019   33.3870   13.8409 C   0  0  0  0  0  0  0  0  0  0  0  0
   44.1737   37.4604   15.0967 C   0  0  0  0  0  0  0  0  0  0  0  0
   44.4311   34.4091   16.0276 C   0  0  0  0  0  0  0  0  0  0  0  0
   38.1755   32.4923   11.1575 C   0  0  0  0  0  0  0  0  0  0  0  0
   37.4714   33.7693   13.0241 C   0  0  0  0  0  0  0  0  0  0  0  0
   43.8266   36.1460   14.4536 C   0  0  1  0  0  0  0  0  0  0  0  0
   45.2199   36.3924   14.9749 C   0  0  2  0  0  0  0  0  0  0  0  0
   43.2403   35.0208   15.2687 C   0  0  1  0  0  0  0  0  0  0  0  0
   39.9094   33.0246   12.9500 C   0  0  0  0  0  0  0  0  0  0  0  0
   50.0829   38.5471   14.8439 C   0  0  0  0  0  0  0  0  0  0  0  0
   41.9550   34.8867   10.5554 C   0  0  0  0  0  0  0  0  0  0  0  0
   41.0029   32.3680   13.8112 C   0  0  0  0  0  0  0  0  0  0  0  0
   40.5065   34.2917   12.3078 C   0  0  0  0  0  0  0  0  0  0  0  0
   45.4891   35.4269   16.0074 N   0  0  0  0  0  0  0  0  0  0  0  0
   42.5687   34.0506   14.4499 N   0  0  0  0  0  0  0  0  0  0  0  0
   46.8591   34.4465   17.6023 O   0  0  0  0  0  0  0  0  0  0  0  0
   40.9999   33.3588   16.0188 O   0  0  0  0  0  0  0  0  0  0  0  0
   37.1346   32.7352   12.1017 O   0  0  0  0  0  0  0  0  0  0  0  0
   41.6174   33.9029   11.5294 O   0  0  0  0  0  0  0  0  0  0  0  0
   47.9889   37.3826   18.0533 S   0  0  0  0  0  0  0  0  0  0  0  0
   48.2305   36.3483   14.6000 H   0  0  0  0  0  0  0  0  0  0  0  0
   49.6531   39.1216   17.6482 H   0  0  0  0  0  0  0  0  0  0  0  0
   39.2388   31.0634   12.3352 H   0  0  0  0  0  0  0  0  0  0  0  0
   40.2420   31.8623   11.1245 H   0  0  0  0  0  0  0  0  0  0  0  0
   38.9562   34.1970   14.5346 H   0  0  0  0  0  0  0  0  0  0  0  0
   38.4413   32.5122   14.4518 H   0  0  0  0  0  0  0  0  0  0  0  0
   44.2630   38.3269   14.4524 H   0  0  0  0  0  0  0  0  0  0  0  0
   43.7727   37.6789   16.0789 H   0  0  0  0  0  0  0  0  0  0  0  0
   44.1780   34.1373   17.0573 H   0  0  0  0  0  0  0  0  0  0  0  0
   44.8366   33.5227   15.5255 H   0  0  0  0  0  0  0  0  0  0  0  0
   38.3417   33.3916   10.5544 H   0  0  0  0  0  0  0  0  0  0  0  0
   37.8278   31.7075   10.4777 H   0  0  0  0  0  0  0  0  0  0  0  0
   36.6154   33.9065   13.6929 H   0  0  0  0  0  0  0  0  0  0  0  0
   37.6133   34.7117   12.4839 H   0  0  0  0  0  0  0  0  0  0  0  0
   43.6720   36.1005   13.3858 H   0  0  0  0  0  0  0  0  0  0  0  0
   46.0052   36.5064   14.2373 H   0  0  0  0  0  0  0  0  0  0  0  0
   42.5037   35.4223   15.9752 H   0  0  0  0  0  0  0  0  0  0  0  0
   49.5688   39.3722   14.3283 H   0  0  0  0  0  0  0  0  0  0  0  0
   50.9982   38.9518   15.3038 H   0  0  0  0  0  0  0  0  0  0  0  0
   50.4137   37.8239   14.0817 H   0  0  0  0  0  0  0  0  0  0  0  0
   42.8173   34.5467    9.9768 H   0  0  0  0  0  0  0  0  0  0  0  0
   42.1872   35.8306   11.0550 H   0  0  0  0  0  0  0  0  0  0  0  0
   41.1037   35.0308    9.8859 H   0  0  0  0  0  0  0  0  0  0  0  0
   41.8353   32.0944   13.1643 H   0  0  0  0  0  0  0  0  0  0  0  0
   40.5927   31.4659   14.2628 H   0  0  0  0  0  0  0  0  0  0  0  0
   40.8228   34.9729   13.0905 H   0  0  0  0  0  0  0  0  0  0  0  0
   39.7575   34.7588   11.6772 H   0  0  0  0  0  0  0  0  0  0  0  0
   42.8952   33.9119   13.4980 H   0  0  0  0  0  0  0  0  0  0  0  0
  1  3  1  0  0  0  0
  1  4  2  0  0  0  0
  2  3  2  0  0  0  0
  2 27  1  0  0  0  0
  3 17  1  0  0  0  0
  4  5  1  0  0  0  0
  4 27  1  0  0  0  0
  5 21  1  0  0  0  0
  5 23  2  0  0  0  0
  6 19  1  0  0  0  0
  6 22  1  0  0  0  0
  6 24  2  0  0  0  0
  7 11  1  0  0  0  0
  7 16  1  0  0  0  0
  8 12  1  0  0  0  0
  8 16  1  0  0  0  0
  9 13  1  0  0  0  0
  9 14  1  0  0  0  0
 10 15  1  0  0  0  0
 10 21  1  0  0  0  0
 11 25  1  0  0  0  0
 12 25  1  0  0  0  0
 13 14  1  0  0  0  0
 13 15  1  0  0  0  0
 14 21  1  0  0  0  0
 15 22  1  0  0  0  0
 16 19  1  0  0  0  0
 16 20  1  0  0  0  0
 18 26  1  0  0  0  0
 20 26  1  0  0  0  0
  1 28  1  0  0  0  0
  2 29  1  0  0  0  0
  7 30  1  0  0  0  0
  7 31  1  0  0  0  0
  8 32  1  0  0  0  0
  8 33  1  0  0  0  0
  9 34  1  0  0  0  0
  9 35  1  0  0  0  0
 10 36  1  0  0  0  0
 10 37  1  0  0  0  0
 11 38  1  0  0  0  0
 11 39  1  0  0  0  0
 12 40  1  0  0  0  0
 12 41  1  0  0  0  0
 13 42  1  0  0  0  0
 14 43  1  0  0  0  0
 15 44  1  0  0  0  0
 17 45  1  0  0  0  0
 17 46  1  0  0  0  0
 17 47  1  0  0  0  0
 18 48  1  0  0  0  0
 18 49  1  0  0  0  0
 18 50  1  0  0  0  0
 19 51  1  0  0  0  0
 19 52  1  0  0  0  0
 20 53  1  0  0  0  0
 20 54  1  0  0  0  0
 22 55  1  0  0  0  0
M  END
> <Chemgauss4 Score>
-6.934760570526

> <Number of Confs>
200

> <og_smiles_field>
COCC1(CC(=O)NC2CN(C(=O)C3=CC(C)=CS3)C3CC23)CCOCC1

$$$$

  -OEChem-03232314423D

 46 47  0     1  0  0  0  0  0999 V2000
   42.8889   33.9768   12.6596 C   0  0  0  0  0  0  0  0  0  0  0  0
   41.0737   33.0635   13.1372 C   0  0  0  0  0  0  0  0  0  0  0  0
   47.6599   36.9656   16.6671 C   0  0  0  0  0  0  0  0  0  0  0  0
   46.9658   35.6915   17.1350 C   0  0  0  0  0  0  0  0  0  0  0  0
   47.6137   37.0729   15.1460 C   0  0  0  0  0  0  0  0  0  0  0  0
   45.5783   35.5759   16.5182 C   0  0  0  0  0  0  0  0  0  0  0  0
   46.1825   36.8912   14.6354 C   0  0  1  0  0  0  0  0  0  0  0  0
   38.8049   32.7085   12.0978 C   0  0  0  0  0  0  0  0  0  0  0  0
   38.9885   33.5767   14.4573 C   0  0  0  0  0  0  0  0  0  0  0  0
   43.8660   35.0197   12.1994 C   0  0  0  0  0  0  0  0  0  0  0  0
   46.1407   36.8839   13.1136 C   0  0  0  0  0  0  0  0  0  0  0  0
   44.2955   38.6020   13.0301 C   0  0  0  0  0  0  0  0  0  0  0  0
   39.6697   32.6960   13.3818 C   0  0  0  0  0  0  0  0  0  0  0  0
   44.7515   37.2217   12.5566 C   0  0  2  0  0  0  0  0  0  0  0  0
   41.5423   34.2021   12.6816 N   0  0  0  0  0  0  0  0  0  0  0  0
   43.2830   32.7704   13.0729 N   0  0  0  0  0  0  0  0  0  0  0  0
   42.1031   32.2063   13.3724 N   0  0  0  0  0  0  0  0  0  0  0  0
   43.7884   36.2336   13.0046 N   0  0  0  0  0  0  0  0  0  0  0  0
   45.6494   35.6442   15.0941 O   0  0  0  0  0  0  0  0  0  0  0  0
   43.2713   39.0828   12.1666 O   0  0  0  0  0  0  0  0  0  0  0  0
   47.1609   37.8365   17.1094 H   0  0  0  0  0  0  0  0  0  0  0  0
   48.6987   36.9782   17.0146 H   0  0  0  0  0  0  0  0  0  0  0  0
   47.5694   34.8300   16.8235 H   0  0  0  0  0  0  0  0  0  0  0  0
   46.9003   35.6726   18.2278 H   0  0  0  0  0  0  0  0  0  0  0  0
   48.0183   38.0395   14.8257 H   0  0  0  0  0  0  0  0  0  0  0  0
   48.2578   36.2901   14.7252 H   0  0  0  0  0  0  0  0  0  0  0  0
   45.1321   34.6124   16.7839 H   0  0  0  0  0  0  0  0  0  0  0  0
   44.9106   36.3629   16.8880 H   0  0  0  0  0  0  0  0  0  0  0  0
   45.5420   37.7041   15.0004 H   0  0  0  0  0  0  0  0  0  0  0  0
   38.8063   33.6974   11.6266 H   0  0  0  0  0  0  0  0  0  0  0  0
   37.7627   32.4381   12.2997 H   0  0  0  0  0  0  0  0  0  0  0  0
   39.2024   31.9917   11.3705 H   0  0  0  0  0  0  0  0  0  0  0  0
   39.0158   34.6291   14.1534 H   0  0  0  0  0  0  0  0  0  0  0  0
   39.4842   33.4961   15.4309 H   0  0  0  0  0  0  0  0  0  0  0  0
   37.9386   33.2960   14.5951 H   0  0  0  0  0  0  0  0  0  0  0  0
   44.8921   34.6405   12.2591 H   0  0  0  0  0  0  0  0  0  0  0  0
   43.6821   35.2975   11.1563 H   0  0  0  0  0  0  0  0  0  0  0  0
   46.4394   35.8870   12.7663 H   0  0  0  0  0  0  0  0  0  0  0  0
   46.8873   37.5921   12.7322 H   0  0  0  0  0  0  0  0  0  0  0  0
   43.9014   38.5682   14.0517 H   0  0  0  0  0  0  0  0  0  0  0  0
   45.1240   39.3172   12.9944 H   0  0  0  0  0  0  0  0  0  0  0  0
   39.5959   31.6553   13.7706 H   0  0  0  0  0  0  0  0  0  0  0  0
   44.7740   37.2034   11.4606 H   0  0  0  0  0  0  0  0  0  0  0  0
   42.0836   31.2561   13.7238 H   0  0  0  0  0  0  0  0  0  0  0  0
   42.8451   36.6193   12.9328 H   0  0  0  0  0  0  0  0  0  0  0  0
   43.0125   39.9560   12.5013 H   0  0  0  0  0  0  0  0  0  0  0  0
  1 10  1  0  0  0  0
  1 15  1  0  0  0  0
  1 16  2  0  0  0  0
  2 13  1  0  0  0  0
  2 15  2  0  0  0  0
  2 17  1  0  0  0  0
  3  4  1  0  0  0  0
  3  5  1  0  0  0  0
  4  6  1  0  0  0  0
  5  7  1  0  0  0  0
  6 19  1  0  0  0  0
  7 11  1  0  0  0  0
  7 19  1  0  0  0  0
  8 13  1  0  0  0  0
  9 13  1  0  0  0  0
 10 18  1  0  0  0  0
 11 14  1  0  0  0  0
 12 14  1  0  0  0  0
 12 20  1  0  0  0  0
 14 18  1  0  0  0  0
 16 17  1  0  0  0  0
  3 21  1  0  0  0  0
  3 22  1  0  0  0  0
  4 23  1  0  0  0  0
  4 24  1  0  0  0  0
  5 25  1  0  0  0  0
  5 26  1  0  0  0  0
  6 27  1  0  0  0  0
  6 28  1  0  0  0  0
  7 29  1  0  0  0  0
  8 30  1  0  0  0  0
  8 31  1  0  0  0  0
  8 32  1  0  0  0  0
  9 33  1  0  0  0  0
  9 34  1  0  0  0  0
  9 35  1  0  0  0  0
 10 36  1  0  0  0  0
 10 37  1  0  0  0  0
 11 38  1  0  0  0  0
 11 39  1  0  0  0  0
 12 40  1  0  0  0  0
 12 41  1  0  0  0  0
 13 42  1  0  0  0  0
 14 43  1  0  0  0  0
 17 44  1  0  0  0  0
 18 45  1  0  0  0  0
 20 46  1  0  0  0  0
M  END
> <Chemgauss4 Score>
-5.871247291565

> <Number of Confs>
200

> <og_smiles_field>
CC(C)C1=NC(CNC(CO)CC2CCCCO2)=NN1

$$$$

  -OEChem-03232314423D

 42 44  0     0  0  0  0  0  0999 V2000
   39.8222   35.1824   10.7924 C   0  0  0  0  0  0  0  0  0  0  0  0
   48.4476   37.5666   17.6751 C   0  0  0  0  0  0  0  0  0  0  0  0
   47.6186   36.4574   17.5490 C   0  0  0  0  0  0  0  0  0  0  0  0
   48.3189   37.8655   15.3191 C   0  0  0  0  0  0  0  0  0  0  0  0
   37.1154   33.6334   12.7682 C   0  0  0  0  0  0  0  0  0  0  0  0
   39.0149   34.5460   11.7877 C   0  0  0  0  0  0  0  0  0  0  0  0
   37.6287   34.2479   11.6473 C   0  0  0  0  0  0  0  0  0  0  0  0
   48.8091   38.2895   16.5437 C   0  0  0  0  0  0  0  0  0  0  0  0
   47.1815   36.1156   16.2794 C   0  0  0  0  0  0  0  0  0  0  0  0
   39.5083   34.1482   13.0109 C   0  0  0  0  0  0  0  0  0  0  0  0
   41.2091   33.8036   14.8373 C   0  0  0  0  0  0  0  0  0  0  0  0
   44.2629   34.0209   16.7637 C   0  0  0  0  0  0  0  0  0  0  0  0
   44.4380   35.5867   14.8151 C   0  0  0  0  0  0  0  0  0  0  0  0
   42.7502   34.1979   16.7439 C   0  0  0  0  0  0  0  0  0  0  0  0
   42.9167   35.7251   14.7982 C   0  0  0  0  0  0  0  0  0  0  0  0
   44.9637   35.2597   16.2100 C   0  0  0  0  0  0  0  0  0  0  0  0
   36.8162   34.5548   10.4440 C   0  0  0  0  0  0  0  0  0  0  0  0
   40.4770   35.6985    9.9852 N   0  0  0  0  0  0  0  0  0  0  0  0
   47.5115   36.7934   15.1572 N   0  0  0  0  0  0  0  0  0  0  0  0
   42.2647   34.5521   15.4054 N   0  0  0  0  0  0  0  0  0  0  0  0
   40.8046   34.2406   13.5762 N   0  0  0  0  0  0  0  0  0  0  0  0
   40.6854   32.8608   15.4367 O   0  0  0  0  0  0  0  0  0  0  0  0
   46.3646   35.0260   16.1294 O   0  0  0  0  0  0  0  0  0  0  0  0
   49.6055   39.3605   16.6352 F   0  0  0  0  0  0  0  0  0  0  0  0
   38.3025   33.4183   13.9834 S   0  0  0  0  0  0  0  0  0  0  0  0
   48.8118   37.8671   18.6528 H   0  0  0  0  0  0  0  0  0  0  0  0
   47.3279   35.8844   18.4225 H   0  0  0  0  0  0  0  0  0  0  0  0
   48.5719   38.3951   14.4065 H   0  0  0  0  0  0  0  0  0  0  0  0
   36.1011   33.2987   12.9365 H   0  0  0  0  0  0  0  0  0  0  0  0
   44.6067   33.8295   17.7833 H   0  0  0  0  0  0  0  0  0  0  0  0
   44.5447   33.1412   16.1771 H   0  0  0  0  0  0  0  0  0  0  0  0
   44.7528   34.8096   14.1004 H   0  0  0  0  0  0  0  0  0  0  0  0
   44.9007   36.5173   14.4533 H   0  0  0  0  0  0  0  0  0  0  0  0
   42.2976   33.2780   17.1209 H   0  0  0  0  0  0  0  0  0  0  0  0
   42.4506   35.0099   17.4201 H   0  0  0  0  0  0  0  0  0  0  0  0
   42.6080   36.5989   15.3804 H   0  0  0  0  0  0  0  0  0  0  0  0
   42.5741   35.8783   13.7729 H   0  0  0  0  0  0  0  0  0  0  0  0
   44.8014   36.1121   16.8805 H   0  0  0  0  0  0  0  0  0  0  0  0
   36.3653   35.5544   10.5233 H   0  0  0  0  0  0  0  0  0  0  0  0
   37.4227   34.5252    9.5263 H   0  0  0  0  0  0  0  0  0  0  0  0
   36.0051   33.8240   10.3048 H   0  0  0  0  0  0  0  0  0  0  0  0
   41.5416   34.6973   12.9569 H   0  0  0  0  0  0  0  0  0  0  0  0
  1  6  1  0  0  0  0
  1 18  3  0  0  0  0
  2  3  1  0  0  0  0
  2  8  2  0  0  0  0
  3  9  2  0  0  0  0
  4  8  1  0  0  0  0
  4 19  2  0  0  0  0
  5  7  2  0  0  0  0
  5 25  1  0  0  0  0
  6  7  1  0  0  0  0
  6 10  2  0  0  0  0
  7 17  1  0  0  0  0
  8 24  1  0  0  0  0
  9 19  1  0  0  0  0
  9 23  1  0  0  0  0
 10 21  1  0  0  0  0
 10 25  1  0  0  0  0
 11 20  1  0  0  0  0
 11 21  1  0  0  0  0
 11 22  2  0  0  0  0
 12 14  1  0  0  0  0
 12 16  1  0  0  0  0
 13 15  1  0  0  0  0
 13 16  1  0  0  0  0
 14 20  1  0  0  0  0
 15 20  1  0  0  0  0
 16 23  1  0  0  0  0
  2 26  1  0  0  0  0
  3 27  1  0  0  0  0
  4 28  1  0  0  0  0
  5 29  1  0  0  0  0
 12 30  1  0  0  0  0
 12 31  1  0  0  0  0
 13 32  1  0  0  0  0
 13 33  1  0  0  0  0
 14 34  1  0  0  0  0
 14 35  1  0  0  0  0
 15 36  1  0  0  0  0
 15 37  1  0  0  0  0
 16 38  1  0  0  0  0
 17 39  1  0  0  0  0
 17 40  1  0  0  0  0
 17 41  1  0  0  0  0
 21 42  1  0  0  0  0
M  END
> <Chemgauss4 Score>
-6.764581203461

> <Number of Confs>
200

> <og_smiles_field>
CC1=CSC(NC(=O)N2CCC(OC3=CC=C(F)C=N3)CC2)=C1C#N

$$$$

  -OEChem-03232314423D

 47 49  0     1  0  0  0  0  0999 V2000
   41.5133   34.8434   14.6643 C   0  0  0  0  0  0  0  0  0  0  0  0
   46.4523   36.7665   15.9263 C   0  0  0  0  0  0  0  0  0  0  0  0
   40.9563   34.9569   13.3584 C   0  0  0  0  0  0  0  0  0  0  0  0
   45.6336   35.7802   15.4218 C   0  0  0  0  0  0  0  0  0  0  0  0
   41.1093   33.6634   15.2502 C   0  0  0  0  0  0  0  0  0  0  0  0
   46.3169   35.0400   17.3040 C   0  0  0  0  0  0  0  0  0  0  0  0
   46.8975   38.0868   15.4096 C   0  0  0  0  0  0  0  0  0  0  0  0
   47.4832   38.9610   16.5234 C   0  0  0  0  0  0  0  0  0  0  0  0
   48.4482   38.1595   17.4015 C   0  0  0  0  0  0  0  0  0  0  0  0
   47.7338   36.9773   18.0585 C   0  0  0  0  0  0  0  0  0  0  0  0
   46.5471   34.2175   18.5092 C   0  0  0  0  0  0  0  0  0  0  0  0
   41.6457   36.9131   16.1102 C   0  0  0  0  0  0  0  0  0  0  0  0
   40.4926   35.9057   11.2276 C   0  0  0  0  0  0  0  0  0  0  0  0
   42.5573   32.3208   16.5757 C   0  0  0  0  0  0  0  0  0  0  0  0
   42.4208   35.8673   15.3114 C   0  0  2  0  0  0  0  0  0  0  0  0
   40.1800   33.9608   12.9386 N   0  0  0  0  0  0  0  0  0  0  0  0
   45.5545   34.7116   16.2830 N   0  0  0  0  0  0  0  0  0  0  0  0
   46.8806   36.2677   17.1281 N   0  0  0  0  0  0  0  0  0  0  0  0
   43.2890   36.5145   14.3174 N   0  0  0  0  0  0  0  0  0  0  0  0
   45.4839   36.6886   12.9800 O   0  0  0  0  0  0  0  0  0  0  0  0
   44.5426   34.4165   13.5052 O   0  0  0  0  0  0  0  0  0  0  0  0
   41.1436   35.9775   12.5039 O   0  0  0  0  0  0  0  0  0  0  0  0
   41.3956   33.1661   16.4472 O   0  0  0  0  0  0  0  0  0  0  0  0
   40.0997   32.8253   14.1494 S   0  0  0  0  0  0  0  0  0  0  0  0
   44.8030   35.7985   13.9327 S   0  0  0  0  0  0  0  0  0  0  0  0
   47.6594   37.9221   14.6379 H   0  0  0  0  0  0  0  0  0  0  0  0
   46.0628   38.6139   14.9343 H   0  0  0  0  0  0  0  0  0  0  0  0
   48.0000   39.8211   16.0832 H   0  0  0  0  0  0  0  0  0  0  0  0
   46.6722   39.3574   17.1479 H   0  0  0  0  0  0  0  0  0  0  0  0
   49.2774   37.7927   16.7833 H   0  0  0  0  0  0  0  0  0  0  0  0
   48.8822   38.8044   18.1735 H   0  0  0  0  0  0  0  0  0  0  0  0
   48.4662   36.2722   18.4648 H   0  0  0  0  0  0  0  0  0  0  0  0
   47.0876   37.3252   18.8726 H   0  0  0  0  0  0  0  0  0  0  0  0
   47.4144   33.5512   18.3743 H   0  0  0  0  0  0  0  0  0  0  0  0
   46.7351   34.8372   19.4020 H   0  0  0  0  0  0  0  0  0  0  0  0
   45.6744   33.5882   18.7522 H   0  0  0  0  0  0  0  0  0  0  0  0
   40.9444   37.4589   15.4695 H   0  0  0  0  0  0  0  0  0  0  0  0
   41.0716   36.4357   16.9122 H   0  0  0  0  0  0  0  0  0  0  0  0
   42.3113   37.6445   16.5824 H   0  0  0  0  0  0  0  0  0  0  0  0
   40.7340   36.7974   10.6439 H   0  0  0  0  0  0  0  0  0  0  0  0
   39.4117   35.8336   11.3724 H   0  0  0  0  0  0  0  0  0  0  0  0
   40.8471   35.0188   10.6971 H   0  0  0  0  0  0  0  0  0  0  0  0
   42.6575   31.9933   17.6133 H   0  0  0  0  0  0  0  0  0  0  0  0
   43.4480   32.8752   16.2697 H   0  0  0  0  0  0  0  0  0  0  0  0
   42.4346   31.4476   15.9306 H   0  0  0  0  0  0  0  0  0  0  0  0
   43.1023   35.3574   16.0034 H   0  0  0  0  0  0  0  0  0  0  0  0
   42.8133   37.0799   13.6037 H   0  0  0  0  0  0  0  0  0  0  0  0
  1  3  1  0  0  0  0
  1  5  2  0  0  0  0
  1 15  1  0  0  0  0
  2  4  2  0  0  0  0
  2  7  1  0  0  0  0
  2 18  1  0  0  0  0
  3 16  2  0  0  0  0
  3 22  1  0  0  0  0
  4 17  1  0  0  0  0
  4 25  1  0  0  0  0
  5 23  1  0  0  0  0
  5 24  1  0  0  0  0
  6 11  1  0  0  0  0
  6 17  2  0  0  0  0
  6 18  1  0  0  0  0
  7  8  1  0  0  0  0
  8  9  1  0  0  0  0
  9 10  1  0  0  0  0
 10 18  1  0  0  0  0
 12 15  1  0  0  0  0
 13 22  1  0  0  0  0
 14 23  1  0  0  0  0
 15 19  1  0  0  0  0
 16 24  1  0  0  0  0
 19 25  1  0  0  0  0
 20 25  2  0  0  0  0
 21 25  2  0  0  0  0
  7 26  1  0  0  0  0
  7 27  1  0  0  0  0
  8 28  1  0  0  0  0
  8 29  1  0  0  0  0
  9 30  1  0  0  0  0
  9 31  1  0  0  0  0
 10 32  1  0  0  0  0
 10 33  1  0  0  0  0
 11 34  1  0  0  0  0
 11 35  1  0  0  0  0
 11 36  1  0  0  0  0
 12 37  1  0  0  0  0
 12 38  1  0  0  0  0
 12 39  1  0  0  0  0
 13 40  1  0  0  0  0
 13 41  1  0  0  0  0
 13 42  1  0  0  0  0
 14 43  1  0  0  0  0
 14 44  1  0  0  0  0
 14 45  1  0  0  0  0
 15 46  1  0  0  0  0
 19 47  1  0  0  0  0
M  END
> <Chemgauss4 Score>
-4.544856548309

> <Number of Confs>
200

> <og_smiles_field>
COC1=NSC(OC)=C1C(C)NS(=O)(=O)C1=C2CCCCN2C(C)=N1

$$$$

  -OEChem-03232314423D

 61 64  0     0  0  0  0  0  0999 V2000
   41.0894   35.2305   11.3202 C   0  0  0  0  0  0  0  0  0  0  0  0
   40.1265   34.3693   11.7831 C   0  0  0  0  0  0  0  0  0  0  0  0
   47.7025   37.4023   16.3873 C   0  0  0  0  0  0  0  0  0  0  0  0
   40.4514   33.0680   13.8875 C   0  0  0  0  0  0  0  0  0  0  0  0
   51.7586   40.9776   15.5620 C   0  0  0  0  0  0  0  0  0  0  0  0
   50.5684   41.1478   16.5398 C   0  0  0  0  0  0  0  0  0  0  0  0
   51.6649   39.4486   15.7956 C   0  0  0  0  0  0  0  0  0  0  0  0
   43.7476   34.5885   13.8952 C   0  0  0  0  0  0  0  0  0  0  0  0
   42.7606   34.5103   16.2124 C   0  0  0  0  0  0  0  0  0  0  0  0
   49.1068   39.3724   15.3378 C   0  0  0  0  0  0  0  0  0  0  0  0
   49.6776   38.8463   17.3718 C   0  0  0  0  0  0  0  0  0  0  0  0
   42.9577   33.3291   13.5429 C   0  0  0  0  0  0  0  0  0  0  0  0
   41.9930   33.2521   15.8137 C   0  0  0  0  0  0  0  0  0  0  0  0
   44.0560   34.6519   15.3989 C   0  0  0  0  0  0  0  0  0  0  0  0
   48.3235   38.8149   16.5787 C   0  0  0  0  0  0  0  0  0  0  0  0
   50.2517   39.6920   16.2690 C   0  0  0  0  0  0  0  0  0  0  0  0
   47.2877   39.7996   17.1258 C   0  0  0  0  0  0  0  0  0  0  0  0
   40.8808   37.5208   10.3022 C   0  0  0  0  0  0  0  0  0  0  0  0
   40.2903   33.0074   12.3894 C   0  0  0  0  0  0  0  0  0  0  0  0
   44.7798   35.9493   15.7509 C   0  0  0  0  0  0  0  0  0  0  0  0
   46.0954   36.1064   15.0015 C   0  0  0  0  0  0  0  0  0  0  0  0
   38.8910   34.9329   11.6234 N   0  0  0  0  0  0  0  0  0  0  0  0
   39.0564   36.1290   11.0695 N   0  0  0  0  0  0  0  0  0  0  0  0
   40.3753   36.3055   10.8883 N   0  0  0  0  0  0  0  0  0  0  0  0
   41.7502   33.2237   14.3704 N   0  0  0  0  0  0  0  0  0  0  0  0
   46.7849   37.3174   15.3513 N   0  0  0  0  0  0  0  0  0  0  0  0
   48.0442   36.4868   17.1268 O   0  0  0  0  0  0  0  0  0  0  0  0
   39.4516   32.9817   14.6051 O   0  0  0  0  0  0  0  0  0  0  0  0
   42.1675   35.1763   11.2640 H   0  0  0  0  0  0  0  0  0  0  0  0
   51.5280   41.2787   14.5335 H   0  0  0  0  0  0  0  0  0  0  0  0
   52.6959   41.4478   15.8702 H   0  0  0  0  0  0  0  0  0  0  0  0
   50.8817   41.3598   17.5685 H   0  0  0  0  0  0  0  0  0  0  0  0
   49.8215   41.8874   16.2388 H   0  0  0  0  0  0  0  0  0  0  0  0
   51.7905   38.8304   14.9027 H   0  0  0  0  0  0  0  0  0  0  0  0
   52.3460   39.0874   16.5751 H   0  0  0  0  0  0  0  0  0  0  0  0
   44.6833   34.6003   13.3237 H   0  0  0  0  0  0  0  0  0  0  0  0
   43.1750   35.4734   13.5887 H   0  0  0  0  0  0  0  0  0  0  0  0
   42.1210   35.3894   16.0607 H   0  0  0  0  0  0  0  0  0  0  0  0
   42.9957   34.4678   17.2827 H   0  0  0  0  0  0  0  0  0  0  0  0
   49.3343   38.5925   14.6032 H   0  0  0  0  0  0  0  0  0  0  0  0
   48.6652   40.2207   14.8073 H   0  0  0  0  0  0  0  0  0  0  0  0
   49.6646   39.3002   18.3667 H   0  0  0  0  0  0  0  0  0  0  0  0
   50.1379   37.8556   17.4547 H   0  0  0  0  0  0  0  0  0  0  0  0
   42.7249   33.3351   12.4766 H   0  0  0  0  0  0  0  0  0  0  0  0
   43.5610   32.4342   13.7365 H   0  0  0  0  0  0  0  0  0  0  0  0
   42.5692   32.3543   16.0666 H   0  0  0  0  0  0  0  0  0  0  0  0
   41.0514   33.2031   16.3694 H   0  0  0  0  0  0  0  0  0  0  0  0
   44.7186   33.8138   15.6529 H   0  0  0  0  0  0  0  0  0  0  0  0
   47.7616   40.7623   17.2419 H   0  0  0  0  0  0  0  0  0  0  0  0
   46.9389   39.4318   18.0786 H   0  0  0  0  0  0  0  0  0  0  0  0
   46.4720   39.8613   16.4217 H   0  0  0  0  0  0  0  0  0  0  0  0
   40.9286   37.3785    9.2194 H   0  0  0  0  0  0  0  0  0  0  0  0
   40.2121   38.3500   10.5497 H   0  0  0  0  0  0  0  0  0  0  0  0
   41.8754   37.7302   10.7057 H   0  0  0  0  0  0  0  0  0  0  0  0
   39.4238   32.3855   12.1578 H   0  0  0  0  0  0  0  0  0  0  0  0
   41.1595   32.4987   11.9697 H   0  0  0  0  0  0  0  0  0  0  0  0
   44.9793   35.9528   16.8273 H   0  0  0  0  0  0  0  0  0  0  0  0
   44.1179   36.7950   15.5374 H   0  0  0  0  0  0  0  0  0  0  0  0
   46.7643   35.2753   15.2464 H   0  0  0  0  0  0  0  0  0  0  0  0
   45.9395   36.1103   13.9181 H   0  0  0  0  0  0  0  0  0  0  0  0
   46.5891   38.1584   14.8093 H   0  0  0  0  0  0  0  0  0  0  0  0
  1  2  2  0  0  0  0
  1 24  1  0  0  0  0
  2 19  1  0  0  0  0
  2 22  1  0  0  0  0
  3 15  1  0  0  0  0
  3 26  1  0  0  0  0
  3 27  2  0  0  0  0
  4 19  1  0  0  0  0
  4 25  1  0  0  0  0
  4 28  2  0  0  0  0
  5  6  1  0  0  0  0
  5  7  1  0  0  0  0
  6 16  1  0  0  0  0
  7 16  1  0  0  0  0
  8 12  1  0  0  0  0
  8 14  1  0  0  0  0
  9 13  1  0  0  0  0
  9 14  1  0  0  0  0
 10 15  1  0  0  0  0
 10 16  1  0  0  0  0
 11 15  1  0  0  0  0
 11 16  1  0  0  0  0
 12 25  1  0  0  0  0
 13 25  1  0  0  0  0
 14 20  1  0  0  0  0
 15 17  1  0  0  0  0
 18 24  1  0  0  0  0
 20 21  1  0  0  0  0
 21 26  1  0  0  0  0
 22 23  2  0  0  0  0
 23 24  1  0  0  0  0
  1 29  1  0  0  0  0
  5 30  1  0  0  0  0
  5 31  1  0  0  0  0
  6 32  1  0  0  0  0
  6 33  1  0  0  0  0
  7 34  1  0  0  0  0
  7 35  1  0  0  0  0
  8 36  1  0  0  0  0
  8 37  1  0  0  0  0
  9 38  1  0  0  0  0
  9 39  1  0  0  0  0
 10 40  1  0  0  0  0
 10 41  1  0  0  0  0
 11 42  1  0  0  0  0
 11 43  1  0  0  0  0
 12 44  1  0  0  0  0
 12 45  1  0  0  0  0
 13 46  1  0  0  0  0
 13 47  1  0  0  0  0
 14 48  1  0  0  0  0
 17 49  1  0  0  0  0
 17 50  1  0  0  0  0
 17 51  1  0  0  0  0
 18 52  1  0  0  0  0
 18 53  1  0  0  0  0
 18 54  1  0  0  0  0
 19 55  1  0  0  0  0
 19 56  1  0  0  0  0
 20 57  1  0  0  0  0
 20 58  1  0  0  0  0
 21 59  1  0  0  0  0
 21 60  1  0  0  0  0
 26 61  1  0  0  0  0
M  END
> <Chemgauss4 Score>
-5.642825126648

> <Number of Confs>
200

> <og_smiles_field>
CN1C=C(CC(=O)N2CCC(CCNC(=O)C3(C)CC4(CCC4)C3)CC2)N=N1

$$$$

  -OEChem-03232314423D

 46 48  0     1  0  0  0  0  0999 V2000
   39.0092   33.4559   14.1545 C   0  0  0  0  0  0  0  0  0  0  0  0
   40.8161   34.2110   13.1545 C   0  0  0  0  0  0  0  0  0  0  0  0
   39.4480   34.1883   13.0352 C   0  0  0  0  0  0  0  0  0  0  0  0
   49.5972   35.2190   14.7083 C   0  0  0  0  0  0  0  0  0  0  0  0
   44.2923   34.3491   16.2541 C   0  0  0  0  0  0  0  0  0  0  0  0
   47.3642   38.0964   17.0262 C   0  0  0  0  0  0  0  0  0  0  0  0
   47.5087   37.2748   15.7358 C   0  0  0  0  0  0  0  0  0  0  0  0
   46.3469   36.1358   18.1968 C   0  0  0  0  0  0  0  0  0  0  0  0
   48.6350   36.1346   17.4946 C   0  0  0  0  0  0  0  0  0  0  0  0
   47.5858   37.0495   18.1316 C   0  0  1  0  0  0  0  0  0  0  0  0
   46.4972   35.2635   16.9356 C   0  0  2  0  0  0  0  0  0  0  0  0
   47.7635   35.8481   16.2654 C   0  0  1  0  0  0  0  0  0  0  0  0
   50.0293   34.1768   13.7309 C   0  0  0  0  0  0  0  0  0  0  0  0
   43.2740   32.4003   13.8964 C   0  0  0  0  0  0  0  0  0  0  0  0
   43.1930   34.5558   15.2222 C   0  0  0  0  0  0  0  0  0  0  0  0
   42.4415   33.2649   14.8486 C   0  0  1  0  0  0  0  0  0  0  0  0
   40.0169   33.0430   14.9279 N   0  0  0  0  0  0  0  0  0  0  0  0
   41.1025   33.5175   14.2935 N   0  0  0  0  0  0  0  0  0  0  0  0
   45.3280   35.2665   16.1023 N   0  0  0  0  0  0  0  0  0  0  0  0
   48.3625   34.9790   15.3016 N   0  0  0  0  0  0  0  0  0  0  0  0
   50.3226   36.1828   14.9241 O   0  0  0  0  0  0  0  0  0  0  0  0
   44.2675   33.4579   17.0986 O   0  0  0  0  0  0  0  0  0  0  0  0
   38.3706   34.9383   11.7156 Br  0  0  0  0  0  0  0  0  0  0  0  0
   37.9986   33.2030   14.4434 H   0  0  0  0  0  0  0  0  0  0  0  0
   41.5919   34.6501   12.5419 H   0  0  0  0  0  0  0  0  0  0  0  0
   48.1361   38.8732   17.0655 H   0  0  0  0  0  0  0  0  0  0  0  0
   46.3864   38.5834   17.0971 H   0  0  0  0  0  0  0  0  0  0  0  0
   46.6211   37.3510   15.1006 H   0  0  0  0  0  0  0  0  0  0  0  0
   48.3652   37.6479   15.1609 H   0  0  0  0  0  0  0  0  0  0  0  0
   46.3797   35.5041   19.0921 H   0  0  0  0  0  0  0  0  0  0  0  0
   45.4138   36.7089   18.2229 H   0  0  0  0  0  0  0  0  0  0  0  0
   49.5696   36.6552   17.2586 H   0  0  0  0  0  0  0  0  0  0  0  0
   48.8501   35.2457   18.0980 H   0  0  0  0  0  0  0  0  0  0  0  0
   47.8596   37.4832   19.0953 H   0  0  0  0  0  0  0  0  0  0  0  0
   46.6623   34.2220   17.2388 H   0  0  0  0  0  0  0  0  0  0  0  0
   49.6910   34.3959   12.7054 H   0  0  0  0  0  0  0  0  0  0  0  0
   51.1259   34.0922   13.6638 H   0  0  0  0  0  0  0  0  0  0  0  0
   49.6726   33.1560   13.9418 H   0  0  0  0  0  0  0  0  0  0  0  0
   43.4580   32.9305   12.9559 H   0  0  0  0  0  0  0  0  0  0  0  0
   42.7695   31.4584   13.6558 H   0  0  0  0  0  0  0  0  0  0  0  0
   44.2456   32.1547   14.3392 H   0  0  0  0  0  0  0  0  0  0  0  0
   43.6789   34.9649   14.3268 H   0  0  0  0  0  0  0  0  0  0  0  0
   42.5006   35.3223   15.5896 H   0  0  0  0  0  0  0  0  0  0  0  0
   42.2936   32.6795   15.7659 H   0  0  0  0  0  0  0  0  0  0  0  0
   45.2531   35.9705   15.3682 H   0  0  0  0  0  0  0  0  0  0  0  0
   47.8544   34.1327   15.0330 H   0  0  0  0  0  0  0  0  0  0  0  0
  1  3  1  0  0  0  0
  1 17  2  0  0  0  0
  2  3  2  0  0  0  0
  2 18  1  0  0  0  0
  3 23  1  0  0  0  0
  4 13  1  0  0  0  0
  4 20  1  0  0  0  0
  4 21  2  0  0  0  0
  5 15  1  0  0  0  0
  5 19  1  0  0  0  0
  5 22  2  0  0  0  0
  6  7  1  0  0  0  0
  6 10  1  0  0  0  0
  7 12  1  0  0  0  0
  8 10  1  0  0  0  0
  8 11  1  0  0  0  0
  9 10  1  0  0  0  0
  9 12  1  0  0  0  0
 11 12  1  0  0  0  0
 11 19  1  0  0  0  0
 12 20  1  0  0  0  0
 14 16  1  0  0  0  0
 15 16  1  0  0  0  0
 16 18  1  0  0  0  0
 17 18  1  0  0  0  0
  1 24  1  0  0  0  0
  2 25  1  0  0  0  0
  6 26  1  0  0  0  0
  6 27  1  0  0  0  0
  7 28  1  0  0  0  0
  7 29  1  0  0  0  0
  8 30  1  0  0  0  0
  8 31  1  0  0  0  0
  9 32  1  0  0  0  0
  9 33  1  0  0  0  0
 10 34  1  0  0  0  0
 11 35  1  0  0  0  0
 13 36  1  0  0  0  0
 13 37  1  0  0  0  0
 13 38  1  0  0  0  0
 14 39  1  0  0  0  0
 14 40  1  0  0  0  0
 14 41  1  0  0  0  0
 15 42  1  0  0  0  0
 15 43  1  0  0  0  0
 16 44  1  0  0  0  0
 19 45  1  0  0  0  0
 20 46  1  0  0  0  0
M  END
> <Chemgauss4 Score>
-6.826038837433

> <Number of Confs>
200

> <og_smiles_field>
CC(=O)N[C@@]12CC[C@@H](C[C@H]1NC(=O)CC(C)N1C=C(Br)C=N1)C2

$$$$

  -OEChem-03232314423D

 62 63  0     1  0  0  0  0  0999 V2000
   41.7066   32.9447   15.2119 C   0  0  0  0  0  0  0  0  0  0  0  0
   42.3191   34.1647   14.8598 C   0  0  0  0  0  0  0  0  0  0  0  0
   43.3805   34.2859   15.7284 C   0  0  0  0  0  0  0  0  0  0  0  0
   42.7180   38.8013   12.6953 C   0  0  0  0  0  0  0  0  0  0  0  0
   46.8209   35.2664   16.6834 C   0  0  0  0  0  0  0  0  0  0  0  0
   44.4215   35.3340   15.8995 C   0  0  0  0  0  0  0  0  0  0  0  0
   44.2810   32.8609   17.5633 C   0  0  0  0  0  0  0  0  0  0  0  0
   45.0547   34.1052   17.9867 C   0  0  0  0  0  0  0  0  0  0  0  0
   40.4251   37.6200   10.8544 C   0  0  0  0  0  0  0  0  0  0  0  0
   40.0761   34.6381   11.4019 C   0  0  0  0  0  0  0  0  0  0  0  0
   42.1553   35.0749   10.0748 C   0  0  0  0  0  0  0  0  0  0  0  0
   49.2572   35.3329   15.1834 C   0  0  0  0  0  0  0  0  0  0  0  0
   48.3713   37.4632   14.1903 C   0  0  0  0  0  0  0  0  0  0  0  0
   48.8179   37.3247   16.6580 C   0  0  0  0  0  0  0  0  0  0  0  0
   44.1202   40.5457   13.4632 C   0  0  0  0  0  0  0  0  0  0  0  0
   41.9024   35.1167   13.7762 C   0  0  0  0  0  0  0  0  0  0  0  0
   42.7310   37.5371   11.8591 C   0  0  0  0  0  0  0  0  0  0  0  0
   41.3525   36.8335   11.7985 C   0  0  2  0  0  0  0  0  0  0  0  0
   41.4604   35.3129   11.4253 C   0  0  0  0  0  0  0  0  0  0  0  0
   48.3689   36.5540   15.4173 C   0  0  0  0  0  0  0  0  0  0  0  0
   42.3231   32.3294   16.2255 N   0  0  0  0  0  0  0  0  0  0  0  0
   43.3267   33.1715   16.5203 N   0  0  0  0  0  0  0  0  0  0  0  0
   45.4822   34.8808   16.8160 N   0  0  0  0  0  0  0  0  0  0  0  0
   42.2596   34.6286   12.4579 N   0  0  0  0  0  0  0  0  0  0  0  0
   41.7501   39.2310   13.3079 O   0  0  0  0  0  0  0  0  0  0  0  0
   47.7252   34.9033   17.4335 O   0  0  0  0  0  0  0  0  0  0  0  0
   43.9660   39.3568   12.6814 O   0  0  0  0  0  0  0  0  0  0  0  0
   47.0235   36.1067   15.6204 O   0  0  0  0  0  0  0  0  0  0  0  0
   40.8355   32.4780   14.7740 H   0  0  0  0  0  0  0  0  0  0  0  0
   44.8993   35.5493   14.9372 H   0  0  0  0  0  0  0  0  0  0  0  0
   43.9666   36.2586   16.2670 H   0  0  0  0  0  0  0  0  0  0  0  0
   44.9632   32.0934   17.1841 H   0  0  0  0  0  0  0  0  0  0  0  0
   43.7092   32.4504   18.4025 H   0  0  0  0  0  0  0  0  0  0  0  0
   44.4478   34.7127   18.6650 H   0  0  0  0  0  0  0  0  0  0  0  0
   45.9669   33.8232   18.5267 H   0  0  0  0  0  0  0  0  0  0  0  0
   40.8025   37.6185    9.8279 H   0  0  0  0  0  0  0  0  0  0  0  0
   40.3050   38.6589   11.1759 H   0  0  0  0  0  0  0  0  0  0  0  0
   39.4268   37.1711   10.8194 H   0  0  0  0  0  0  0  0  0  0  0  0
   39.5436   34.7837   12.3500 H   0  0  0  0  0  0  0  0  0  0  0  0
   39.4459   35.0459   10.6031 H   0  0  0  0  0  0  0  0  0  0  0  0
   40.1565   33.5563   11.2522 H   0  0  0  0  0  0  0  0  0  0  0  0
   43.1478   35.5419   10.0517 H   0  0  0  0  0  0  0  0  0  0  0  0
   41.5836   35.4931    9.2392 H   0  0  0  0  0  0  0  0  0  0  0  0
   42.3013   34.0074    9.8809 H   0  0  0  0  0  0  0  0  0  0  0  0
   49.2582   34.6777   16.0619 H   0  0  0  0  0  0  0  0  0  0  0  0
   48.9245   34.7521   14.3169 H   0  0  0  0  0  0  0  0  0  0  0  0
   50.2987   35.6324   15.0201 H   0  0  0  0  0  0  0  0  0  0  0  0
   47.7352   38.3406   14.3537 H   0  0  0  0  0  0  0  0  0  0  0  0
   47.9605   36.9423   13.3178 H   0  0  0  0  0  0  0  0  0  0  0  0
   49.3810   37.8078   13.9447 H   0  0  0  0  0  0  0  0  0  0  0  0
   48.1809   38.2006   16.8260 H   0  0  0  0  0  0  0  0  0  0  0  0
   48.7872   36.6979   17.5551 H   0  0  0  0  0  0  0  0  0  0  0  0
   49.8386   37.7040   16.5329 H   0  0  0  0  0  0  0  0  0  0  0  0
   45.1491   40.9047   13.3826 H   0  0  0  0  0  0  0  0  0  0  0  0
   43.8790   40.3302   14.5071 H   0  0  0  0  0  0  0  0  0  0  0  0
   43.4389   41.3111   13.0843 H   0  0  0  0  0  0  0  0  0  0  0  0
   40.8184   35.2733   13.7955 H   0  0  0  0  0  0  0  0  0  0  0  0
   42.3748   36.0956   13.9100 H   0  0  0  0  0  0  0  0  0  0  0  0
   43.4893   36.8863   12.3068 H   0  0  0  0  0  0  0  0  0  0  0  0
   43.0561   37.7956   10.8442 H   0  0  0  0  0  0  0  0  0  0  0  0
   40.8959   36.8901   12.7975 H   0  0  0  0  0  0  0  0  0  0  0  0
   43.2399   34.8112   12.2740 H   0  0  0  0  0  0  0  0  0  0  0  0
  1  2  1  0  0  0  0
  1 21  2  0  0  0  0
  2  3  2  0  0  0  0
  2 16  1  0  0  0  0
  3  6  1  0  0  0  0
  3 22  1  0  0  0  0
  4 17  1  0  0  0  0
  4 25  2  0  0  0  0
  4 27  1  0  0  0  0
  5 23  1  0  0  0  0
  5 26  2  0  0  0  0
  5 28  1  0  0  0  0
  6 23  1  0  0  0  0
  7  8  1  0  0  0  0
  7 22  1  0  0  0  0
  8 23  1  0  0  0  0
  9 18  1  0  0  0  0
 10 19  1  0  0  0  0
 11 19  1  0  0  0  0
 12 20  1  0  0  0  0
 13 20  1  0  0  0  0
 14 20  1  0  0  0  0
 15 27  1  0  0  0  0
 16 24  1  0  0  0  0
 17 18  1  0  0  0  0
 18 19  1  0  0  0  0
 19 24  1  0  0  0  0
 20 28  1  0  0  0  0
 21 22  1  0  0  0  0
  1 29  1  0  0  0  0
  6 30  1  0  0  0  0
  6 31  1  0  0  0  0
  7 32  1  0  0  0  0
  7 33  1  0  0  0  0
  8 34  1  0  0  0  0
  8 35  1  0  0  0  0
  9 36  1  0  0  0  0
  9 37  1  0  0  0  0
  9 38  1  0  0  0  0
 10 39  1  0  0  0  0
 10 40  1  0  0  0  0
 10 41  1  0  0  0  0
 11 42  1  0  0  0  0
 11 43  1  0  0  0  0
 11 44  1  0  0  0  0
 12 45  1  0  0  0  0
 12 46  1  0  0  0  0
 12 47  1  0  0  0  0
 13 48  1  0  0  0  0
 13 49  1  0  0  0  0
 13 50  1  0  0  0  0
 14 51  1  0  0  0  0
 14 52  1  0  0  0  0
 14 53  1  0  0  0  0
 15 54  1  0  0  0  0
 15 55  1  0  0  0  0
 15 56  1  0  0  0  0
 16 57  1  0  0  0  0
 16 58  1  0  0  0  0
 17 59  1  0  0  0  0
 17 60  1  0  0  0  0
 18 61  1  0  0  0  0
 24 62  1  0  0  0  0
M  END
> <Chemgauss4 Score>
-5.398414611816

> <Number of Confs>
200

> <og_smiles_field>
COC(=O)CC(C)C(C)(C)NCC1=C2CN(C(=O)OC(C)(C)C)CCN2N=C1

$$$$

  -OEChem-03232314423D

 35 37  0     0  0  0  0  0  0999 V2000
   42.4797   35.1379   16.0302 C   0  0  0  0  0  0  0  0  0  0  0  0
   43.2733   34.2486   15.3478 C   0  0  0  0  0  0  0  0  0  0  0  0
   47.5490   36.7316   16.3229 C   0  0  0  0  0  0  0  0  0  0  0  0
   47.3166   36.9298   14.9829 C   0  0  0  0  0  0  0  0  0  0  0  0
   42.6339   33.0056   15.5157 C   0  0  0  0  0  0  0  0  0  0  0  0
   49.2689   37.7282   15.5905 C   0  0  0  0  0  0  0  0  0  0  0  0
   44.5068   34.5937   14.6249 C   0  0  0  0  0  0  0  0  0  0  0  0
   46.5787   36.0507   17.2061 C   0  0  0  0  0  0  0  0  0  0  0  0
   46.1127   36.5366   14.2211 C   0  0  0  0  0  0  0  0  0  0  0  0
   45.1927   36.0296   16.5295 C   0  0  0  0  0  0  0  0  0  0  0  0
   50.5833   38.3912   15.4612 C   0  0  0  0  0  0  0  0  0  0  0  0
   48.6626   38.0109   13.1638 C   0  0  0  0  0  0  0  0  0  0  0  0
   48.7655   37.2258   16.7004 N   0  0  0  0  0  0  0  0  0  0  0  0
   41.5200   33.0935   16.2475 N   0  0  0  0  0  0  0  0  0  0  0  0
   41.4533   34.4022   16.5456 N   0  0  0  0  0  0  0  0  0  0  0  0
   48.4250   37.5732   14.5192 N   0  0  0  0  0  0  0  0  0  0  0  0
   45.2674   35.6732   15.0913 N   0  0  0  0  0  0  0  0  0  0  0  0
   43.1321   31.8638   14.9729 N   0  0  0  0  0  0  0  0  0  0  0  0
   44.7838   33.8916   13.6534 O   0  0  0  0  0  0  0  0  0  0  0  0
   42.5487   36.2040   16.1948 H   0  0  0  0  0  0  0  0  0  0  0  0
   46.9154   35.0239   17.3894 H   0  0  0  0  0  0  0  0  0  0  0  0
   46.5127   36.5611   18.1726 H   0  0  0  0  0  0  0  0  0  0  0  0
   45.5135   37.4151   13.9588 H   0  0  0  0  0  0  0  0  0  0  0  0
   46.3894   36.0103   13.3039 H   0  0  0  0  0  0  0  0  0  0  0  0
   44.5309   35.3445   17.0690 H   0  0  0  0  0  0  0  0  0  0  0  0
   44.7349   37.0261   16.5763 H   0  0  0  0  0  0  0  0  0  0  0  0
   51.3715   37.6621   15.2142 H   0  0  0  0  0  0  0  0  0  0  0  0
   50.5798   39.1629   14.6735 H   0  0  0  0  0  0  0  0  0  0  0  0
   50.8791   38.9046   16.3914 H   0  0  0  0  0  0  0  0  0  0  0  0
   48.2777   39.0294   13.0659 H   0  0  0  0  0  0  0  0  0  0  0  0
   49.7360   37.9863   12.9561 H   0  0  0  0  0  0  0  0  0  0  0  0
   48.1483   37.3385   12.4715 H   0  0  0  0  0  0  0  0  0  0  0  0
   40.6765   34.7273   17.1078 H   0  0  0  0  0  0  0  0  0  0  0  0
   43.9690   31.8692   14.3793 H   0  0  0  0  0  0  0  0  0  0  0  0
   42.6397   30.9675   15.0567 H   0  0  0  0  0  0  0  0  0  0  0  0
  1  2  2  0  0  0  0
  1 15  1  0  0  0  0
  2  5  1  0  0  0  0
  2  7  1  0  0  0  0
  3  4  2  0  0  0  0
  3  8  1  0  0  0  0
  3 13  1  0  0  0  0
  4  9  1  0  0  0  0
  4 16  1  0  0  0  0
  5 14  2  0  0  0  0
  5 18  1  0  0  0  0
  6 11  1  0  0  0  0
  6 13  2  0  0  0  0
  6 16  1  0  0  0  0
  7 17  1  0  0  0  0
  7 19  2  0  0  0  0
  8 10  1  0  0  0  0
  9 17  1  0  0  0  0
 10 17  1  0  0  0  0
 12 16  1  0  0  0  0
 14 15  1  0  0  0  0
  1 20  1  0  0  0  0
  8 21  1  0  0  0  0
  8 22  1  0  0  0  0
  9 23  1  0  0  0  0
  9 24  1  0  0  0  0
 10 25  1  0  0  0  0
 10 26  1  0  0  0  0
 11 27  1  0  0  0  0
 11 28  1  0  0  0  0
 11 29  1  0  0  0  0
 12 30  1  0  0  0  0
 12 31  1  0  0  0  0
 12 32  1  0  0  0  0
 15 33  1  0  0  0  0
 18 34  1  0  0  0  0
 18 35  1  0  0  0  0
M  END
> <Chemgauss4 Score>
-8.880712509155

> <Number of Confs>
19

> <og_smiles_field>
CC1=NC2=C(CN(C(=O)C3=CNN=C3N)CC2)N1C

$$$$

  -OEChem-03232314423D

 56 59  0     0  0  0  0  0  0999 V2000
   48.0757   37.8856   17.4757 C   0  0  0  0  0  0  0  0  0  0  0  0
   48.9515   38.9396   17.2409 C   0  0  0  0  0  0  0  0  0  0  0  0
   48.2440   36.6845   16.7958 C   0  0  0  0  0  0  0  0  0  0  0  0
   49.9713   38.7434   16.3237 C   0  0  0  0  0  0  0  0  0  0  0  0
   49.2954   36.5893   15.8983 C   0  0  0  0  0  0  0  0  0  0  0  0
   47.3170   35.5670   17.0430 C   0  0  0  0  0  0  0  0  0  0  0  0
   41.9508   34.2698   13.3585 C   0  0  0  0  0  0  0  0  0  0  0  0
   43.0118   37.2055   13.9106 C   0  0  0  0  0  0  0  0  0  0  0  0
   42.7732   37.2205   15.3885 C   0  0  0  0  0  0  0  0  0  0  0  0
   39.6577   33.4482   14.3653 C   0  0  0  0  0  0  0  0  0  0  0  0
   39.8580   33.0881   12.2755 C   0  0  0  0  0  0  0  0  0  0  0  0
   45.7625   36.3954   15.1934 C   0  0  0  0  0  0  0  0  0  0  0  0
   44.9591   34.7558   16.3047 C   0  0  0  0  0  0  0  0  0  0  0  0
   40.8726   33.1864   13.4413 C   0  0  0  0  0  0  0  0  0  0  0  0
   44.6122   35.3993   14.9455 C   0  0  0  0  0  0  0  0  0  0  0  0
   38.7721   32.7411   13.3165 C   0  0  0  0  0  0  0  0  0  0  0  0
   43.2143   35.9273   14.7146 C   0  0  0  0  0  0  0  0  0  0  0  0
   49.5269   35.3238   15.1379 C   0  0  0  0  0  0  0  0  0  0  0  0
   52.1427   39.8165   16.9721 C   0  0  0  0  0  0  0  0  0  0  0  0
   36.7612   32.5858   12.1104 C   0  0  0  0  0  0  0  0  0  0  0  0
   50.9301   39.8530   16.0462 C   0  0  0  0  0  0  0  0  0  0  0  0
   50.1665   37.5913   15.6439 N   0  0  0  0  0  0  0  0  0  0  0  0
   46.2005   35.5033   16.2508 N   0  0  0  0  0  0  0  0  0  0  0  0
   42.2348   34.8858   14.5674 N   0  0  0  0  0  0  0  0  0  0  0  0
   47.6022   34.7552   17.9195 O   0  0  0  0  0  0  0  0  0  0  0  0
   42.4770   34.5173   12.2798 O   0  0  0  0  0  0  0  0  0  0  0  0
   37.4761   33.3183   13.0880 O   0  0  0  0  0  0  0  0  0  0  0  0
   47.2664   38.0119   18.1903 H   0  0  0  0  0  0  0  0  0  0  0  0
   48.8311   39.8819   17.7646 H   0  0  0  0  0  0  0  0  0  0  0  0
   42.1480   37.2804   13.2605 H   0  0  0  0  0  0  0  0  0  0  0  0
   43.8921   37.7149   13.5370 H   0  0  0  0  0  0  0  0  0  0  0  0
   43.4929   37.7402   16.0097 H   0  0  0  0  0  0  0  0  0  0  0  0
   41.7491   37.3059   15.7324 H   0  0  0  0  0  0  0  0  0  0  0  0
   39.6915   32.9648   15.3446 H   0  0  0  0  0  0  0  0  0  0  0  0
   39.4237   34.5096   14.5012 H   0  0  0  0  0  0  0  0  0  0  0  0
   39.6869   34.0362   11.7544 H   0  0  0  0  0  0  0  0  0  0  0  0
   40.0560   32.3082   11.5364 H   0  0  0  0  0  0  0  0  0  0  0  0
   46.4757   36.4978   14.3707 H   0  0  0  0  0  0  0  0  0  0  0  0
   45.4741   37.3819   15.5709 H   0  0  0  0  0  0  0  0  0  0  0  0
   44.3282   35.0489   17.1501 H   0  0  0  0  0  0  0  0  0  0  0  0
   45.0811   33.6692   16.2802 H   0  0  0  0  0  0  0  0  0  0  0  0
   41.3235   32.2014   13.6543 H   0  0  0  0  0  0  0  0  0  0  0  0
   44.8579   34.7157   14.1159 H   0  0  0  0  0  0  0  0  0  0  0  0
   38.6870   31.6615   13.4953 H   0  0  0  0  0  0  0  0  0  0  0  0
   48.9737   35.3434   14.1922 H   0  0  0  0  0  0  0  0  0  0  0  0
   50.5921   35.1838   14.9180 H   0  0  0  0  0  0  0  0  0  0  0  0
   49.2020   34.4501   15.7159 H   0  0  0  0  0  0  0  0  0  0  0  0
   51.8364   39.8578   18.0229 H   0  0  0  0  0  0  0  0  0  0  0  0
   52.8035   40.6671   16.7778 H   0  0  0  0  0  0  0  0  0  0  0  0
   52.7208   38.8976   16.8265 H   0  0  0  0  0  0  0  0  0  0  0  0
   35.7813   33.0438   11.9551 H   0  0  0  0  0  0  0  0  0  0  0  0
   36.6432   31.5514   12.4429 H   0  0  0  0  0  0  0  0  0  0  0  0
   37.3217   32.6034   11.1727 H   0  0  0  0  0  0  0  0  0  0  0  0
   51.2734   39.8100   15.0004 H   0  0  0  0  0  0  0  0  0  0  0  0
   50.4275   40.8279   16.1484 H   0  0  0  0  0  0  0  0  0  0  0  0
   41.7220   34.5845   15.3953 H   0  0  0  0  0  0  0  0  0  0  0  0
  1  2  1  0  0  0  0
  1  3  2  0  0  0  0
  2  4  2  0  0  0  0
  3  5  1  0  0  0  0
  3  6  1  0  0  0  0
  4 21  1  0  0  0  0
  4 22  1  0  0  0  0
  5 18  1  0  0  0  0
  5 22  2  0  0  0  0
  6 23  1  0  0  0  0
  6 25  2  0  0  0  0
  7 14  1  0  0  0  0
  7 24  1  0  0  0  0
  7 26  2  0  0  0  0
  8  9  1  0  0  0  0
  8 17  1  0  0  0  0
  9 17  1  0  0  0  0
 10 14  1  0  0  0  0
 10 16  1  0  0  0  0
 11 14  1  0  0  0  0
 11 16  1  0  0  0  0
 12 15  1  0  0  0  0
 12 23  1  0  0  0  0
 13 15  1  0  0  0  0
 13 23  1  0  0  0  0
 15 17  1  0  0  0  0
 16 27  1  0  0  0  0
 17 24  1  0  0  0  0
 19 21  1  0  0  0  0
 20 27  1  0  0  0  0
  1 28  1  0  0  0  0
  2 29  1  0  0  0  0
  8 30  1  0  0  0  0
  8 31  1  0  0  0  0
  9 32  1  0  0  0  0
  9 33  1  0  0  0  0
 10 34  1  0  0  0  0
 10 35  1  0  0  0  0
 11 36  1  0  0  0  0
 11 37  1  0  0  0  0
 12 38  1  0  0  0  0
 12 39  1  0  0  0  0
 13 40  1  0  0  0  0
 13 41  1  0  0  0  0
 14 42  1  0  0  0  0
 15 43  1  0  0  0  0
 16 44  1  0  0  0  0
 18 45  1  0  0  0  0
 18 46  1  0  0  0  0
 18 47  1  0  0  0  0
 19 48  1  0  0  0  0
 19 49  1  0  0  0  0
 19 50  1  0  0  0  0
 20 51  1  0  0  0  0
 20 52  1  0  0  0  0
 20 53  1  0  0  0  0
 21 54  1  0  0  0  0
 21 55  1  0  0  0  0
 24 56  1  0  0  0  0
M  END
> <Chemgauss4 Score>
-6.065430164337

> <Number of Confs>
200

> <og_smiles_field>
CCC1=CC=C(C(=O)N2CC(C3(NC(=O)C4CC(OC)C4)CC3)C2)C(C)=N1

$$$$

  -OEChem-03232314423D

 50 52  0     0  0  0  0  0  0999 V2000
   49.5807   39.0569   16.8534 C   0  0  0  0  0  0  0  0  0  0  0  0
   48.5090   38.8335   17.7177 C   0  0  0  0  0  0  0  0  0  0  0  0
   42.6240   32.7686   12.5080 C   0  0  0  0  0  0  0  0  0  0  0  0
   41.4836   32.7433   13.2757 C   0  0  0  0  0  0  0  0  0  0  0  0
   49.9346   38.0864   15.9160 C   0  0  0  0  0  0  0  0  0  0  0  0
   48.1452   36.6692   16.7075 C   0  0  0  0  0  0  0  0  0  0  0  0
   47.7913   37.6397   17.6448 C   0  0  0  0  0  0  0  0  0  0  0  0
   49.2169   36.8926   15.8431 C   0  0  0  0  0  0  0  0  0  0  0  0
   42.9909   34.1139   14.1161 C   0  0  0  0  0  0  0  0  0  0  0  0
   43.6609   34.6761   16.4391 C   0  0  0  0  0  0  0  0  0  0  0  0
   44.2895   36.1940   14.6147 C   0  0  0  0  0  0  0  0  0  0  0  0
   45.1511   34.4461   16.7287 C   0  0  0  0  0  0  0  0  0  0  0  0
   45.7689   35.9364   14.9130 C   0  0  0  0  0  0  0  0  0  0  0  0
   51.0848   38.3448   14.9995 C   0  0  0  0  0  0  0  0  0  0  0  0
   40.8156   33.9167   15.3753 C   0  0  0  0  0  0  0  0  0  0  0  0
   47.0413   36.8170   19.7463 C   0  0  0  0  0  0  0  0  0  0  0  0
   48.9392   36.0213   13.6477 C   0  0  0  0  0  0  0  0  0  0  0  0
   47.3716   35.3848   16.6301 C   0  0  0  0  0  0  0  0  0  0  0  0
   43.5585   33.6235   13.0366 N   0  0  0  0  0  0  0  0  0  0  0  0
   41.7337   33.6097   14.3023 N   0  0  0  0  0  0  0  0  0  0  0  0
   43.5030   35.0304   15.0258 N   0  0  0  0  0  0  0  0  0  0  0  0
   45.9575   35.6146   16.3380 N   0  0  0  0  0  0  0  0  0  0  0  0
   46.7472   37.4391   18.4973 O   0  0  0  0  0  0  0  0  0  0  0  0
   49.5645   35.9442   14.9263 O   0  0  0  0  0  0  0  0  0  0  0  0
   50.1335   39.9901   16.9177 H   0  0  0  0  0  0  0  0  0  0  0  0
   48.2383   39.5935   18.4455 H   0  0  0  0  0  0  0  0  0  0  0  0
   42.8200   32.2147   11.6015 H   0  0  0  0  0  0  0  0  0  0  0  0
   40.5515   32.2036   13.1826 H   0  0  0  0  0  0  0  0  0  0  0  0
   43.1121   33.7641   16.6713 H   0  0  0  0  0  0  0  0  0  0  0  0
   43.2774   35.4816   17.0656 H   0  0  0  0  0  0  0  0  0  0  0  0
   43.9464   37.0803   15.1547 H   0  0  0  0  0  0  0  0  0  0  0  0
   44.1719   36.3799   13.5444 H   0  0  0  0  0  0  0  0  0  0  0  0
   45.2625   34.2632   17.8042 H   0  0  0  0  0  0  0  0  0  0  0  0
   45.4918   33.5403   16.2094 H   0  0  0  0  0  0  0  0  0  0  0  0
   46.1415   35.1289   14.2739 H   0  0  0  0  0  0  0  0  0  0  0  0
   46.3294   36.8419   14.6625 H   0  0  0  0  0  0  0  0  0  0  0  0
   52.0175   37.9843   15.4490 H   0  0  0  0  0  0  0  0  0  0  0  0
   50.9444   37.8413   14.0350 H   0  0  0  0  0  0  0  0  0  0  0  0
   51.1903   39.4162   14.7877 H   0  0  0  0  0  0  0  0  0  0  0  0
   40.9971   33.2081   16.1877 H   0  0  0  0  0  0  0  0  0  0  0  0
   40.9845   34.9416   15.7171 H   0  0  0  0  0  0  0  0  0  0  0  0
   39.7890   33.8258   15.0096 H   0  0  0  0  0  0  0  0  0  0  0  0
   46.1226   36.7166   20.3295 H   0  0  0  0  0  0  0  0  0  0  0  0
   47.7685   37.4220   20.2936 H   0  0  0  0  0  0  0  0  0  0  0  0
   47.4617   35.8260   19.5596 H   0  0  0  0  0  0  0  0  0  0  0  0
   49.3033   35.2093   13.0136 H   0  0  0  0  0  0  0  0  0  0  0  0
   49.1658   36.9866   13.1880 H   0  0  0  0  0  0  0  0  0  0  0  0
   47.8583   35.9250   13.7743 H   0  0  0  0  0  0  0  0  0  0  0  0
   47.7770   34.7365   15.8457 H   0  0  0  0  0  0  0  0  0  0  0  0
   47.4330   34.8317   17.5732 H   0  0  0  0  0  0  0  0  0  0  0  0
  1  2  1  0  0  0  0
  1  5  2  0  0  0  0
  2  7  2  0  0  0  0
  3  4  2  0  0  0  0
  3 19  1  0  0  0  0
  4 20  1  0  0  0  0
  5  8  1  0  0  0  0
  5 14  1  0  0  0  0
  6  7  1  0  0  0  0
  6  8  2  0  0  0  0
  6 18  1  0  0  0  0
  7 23  1  0  0  0  0
  8 24  1  0  0  0  0
  9 19  2  0  0  0  0
  9 20  1  0  0  0  0
  9 21  1  0  0  0  0
 10 12  1  0  0  0  0
 10 21  1  0  0  0  0
 11 13  1  0  0  0  0
 11 21  1  0  0  0  0
 12 22  1  0  0  0  0
 13 22  1  0  0  0  0
 15 20  1  0  0  0  0
 16 23  1  0  0  0  0
 17 24  1  0  0  0  0
 18 22  1  0  0  0  0
  1 25  1  0  0  0  0
  2 26  1  0  0  0  0
  3 27  1  0  0  0  0
  4 28  1  0  0  0  0
 10 29  1  0  0  0  0
 10 30  1  0  0  0  0
 11 31  1  0  0  0  0
 11 32  1  0  0  0  0
 12 33  1  0  0  0  0
 12 34  1  0  0  0  0
 13 35  1  0  0  0  0
 13 36  1  0  0  0  0
 14 37  1  0  0  0  0
 14 38  1  0  0  0  0
 14 39  1  0  0  0  0
 15 40  1  0  0  0  0
 15 41  1  0  0  0  0
 15 42  1  0  0  0  0
 16 43  1  0  0  0  0
 16 44  1  0  0  0  0
 16 45  1  0  0  0  0
 17 46  1  0  0  0  0
 17 47  1  0  0  0  0
 17 48  1  0  0  0  0
 18 49  1  0  0  0  0
 18 50  1  0  0  0  0
M  END
> <Chemgauss4 Score>
-5.960792541504

> <Number of Confs>
109

> <og_smiles_field>
COC1=CC=C(C)C(OC)=C1CN1CCN(C2=NC=CN2C)CC1

$$$$

  -OEChem-03232314423D

 47 49  0     1  0  0  0  0  0999 V2000
   39.7938   32.9258   12.4862 C   0  0  0  0  0  0  0  0  0  0  0  0
   40.4840   33.4860   14.7217 C   0  0  0  0  0  0  0  0  0  0  0  0
   40.7760   32.9829   13.5124 C   0  0  0  0  0  0  0  0  0  0  0  0
   41.4631   33.5610   15.7991 C   0  0  0  0  0  0  0  0  0  0  0  0
   42.7058   33.1035   15.5576 C   0  0  0  0  0  0  0  0  0  0  0  0
   42.1615   32.4791   13.2599 C   0  0  0  0  0  0  0  0  0  0  0  0
   43.7890   33.1217   16.5606 C   0  0  0  0  0  0  0  0  0  0  0  0
   45.4642   36.4348   16.3442 C   0  0  0  0  0  0  0  0  0  0  0  0
   47.5878   35.0448   16.0270 C   0  0  0  0  0  0  0  0  0  0  0  0
   47.2491   36.2640   18.1924 C   0  0  0  0  0  0  0  0  0  0  0  0
   44.4716   35.4386   15.7549 C   0  0  0  0  0  0  0  0  0  0  0  0
   45.6703   34.3915   17.5510 C   0  0  0  0  0  0  0  0  0  0  0  0
   48.5887   36.1301   15.6517 C   0  0  0  0  0  0  0  0  0  0  0  0
   48.3561   37.2379   17.7710 C   0  0  2  0  0  0  0  0  0  0  0  0
   46.5331   35.5567   17.0292 C   0  0  1  0  0  0  0  0  0  0  0  0
   40.9408   34.1565   17.0755 C   0  0  0  0  0  0  0  0  0  0  0  0
   48.9888   39.5234   16.9738 C   0  0  0  0  0  0  0  0  0  0  0  0
   47.8586   38.6073   17.3187 C   0  0  0  0  0  0  0  0  0  0  0  0
   38.9924   32.8795   11.6487 N   0  0  0  0  0  0  0  0  0  0  0  0
   43.0369   32.5811   14.3268 N   0  0  0  0  0  0  0  0  0  0  0  0
   44.5818   34.2529   16.5950 N   0  0  0  0  0  0  0  0  0  0  0  0
   42.4794   32.0097   12.1691 O   0  0  0  0  0  0  0  0  0  0  0  0
   43.9295   32.1465   17.2980 O   0  0  0  0  0  0  0  0  0  0  0  0
   49.2349   36.6545   16.8076 O   0  0  0  0  0  0  0  0  0  0  0  0
   39.4846   33.8596   14.9332 H   0  0  0  0  0  0  0  0  0  0  0  0
   45.8802   37.0992   15.5790 H   0  0  0  0  0  0  0  0  0  0  0  0
   44.9508   37.0611   17.0862 H   0  0  0  0  0  0  0  0  0  0  0  0
   47.0722   34.7274   15.1110 H   0  0  0  0  0  0  0  0  0  0  0  0
   48.1230   34.1698   16.4125 H   0  0  0  0  0  0  0  0  0  0  0  0
   47.6608   35.5158   18.9049 H   0  0  0  0  0  0  0  0  0  0  0  0
   46.4853   36.8248   18.7756 H   0  0  0  0  0  0  0  0  0  0  0  0
   43.4478   35.8267   15.7603 H   0  0  0  0  0  0  0  0  0  0  0  0
   44.7421   35.1587   14.7303 H   0  0  0  0  0  0  0  0  0  0  0  0
   46.2064   33.4415   17.6552 H   0  0  0  0  0  0  0  0  0  0  0  0
   45.2126   34.6257   18.5216 H   0  0  0  0  0  0  0  0  0  0  0  0
   49.3441   35.7651   14.9461 H   0  0  0  0  0  0  0  0  0  0  0  0
   48.0660   36.9587   15.1611 H   0  0  0  0  0  0  0  0  0  0  0  0
   49.0113   37.4371   18.7052 H   0  0  0  0  0  0  0  0  0  0  0  0
   40.5345   33.3668   17.7021 H   0  0  0  0  0  0  0  0  0  0  0  0
   40.1616   34.8787   16.8448 H   0  0  0  0  0  0  0  0  0  0  0  0
   41.7516   34.6583   17.5978 H   0  0  0  0  0  0  0  0  0  0  0  0
   49.6430   39.6488   17.8446 H   0  0  0  0  0  0  0  0  0  0  0  0
   48.6150   40.5114   16.6848 H   0  0  0  0  0  0  0  0  0  0  0  0
   49.5881   39.1111   16.1552 H   0  0  0  0  0  0  0  0  0  0  0  0
   47.2092   38.4859   16.4460 H   0  0  0  0  0  0  0  0  0  0  0  0
   47.2578   39.0552   18.1164 H   0  0  0  0  0  0  0  0  0  0  0  0
   43.9878   32.2482   14.1933 H   0  0  0  0  0  0  0  0  0  0  0  0
  1  3  1  0  0  0  0
  1 19  3  0  0  0  0
  2  3  2  0  0  0  0
  2  4  1  0  0  0  0
  3  6  1  0  0  0  0
  4  5  2  0  0  0  0
  4 16  1  0  0  0  0
  5  7  1  0  0  0  0
  5 20  1  0  0  0  0
  6 20  1  0  0  0  0
  6 22  2  0  0  0  0
  7 21  1  0  0  0  0
  7 23  2  0  0  0  0
  8 11  1  0  0  0  0
  8 15  1  0  0  0  0
  9 13  1  0  0  0  0
  9 15  1  0  0  0  0
 10 14  1  0  0  0  0
 10 15  1  0  0  0  0
 11 21  1  0  0  0  0
 12 15  1  0  0  0  0
 12 21  1  0  0  0  0
 13 24  1  0  0  0  0
 14 18  1  0  0  0  0
 14 24  1  0  0  0  0
 17 18  1  0  0  0  0
  2 25  1  0  0  0  0
  8 26  1  0  0  0  0
  8 27  1  0  0  0  0
  9 28  1  0  0  0  0
  9 29  1  0  0  0  0
 10 30  1  0  0  0  0
 10 31  1  0  0  0  0
 11 32  1  0  0  0  0
 11 33  1  0  0  0  0
 12 34  1  0  0  0  0
 12 35  1  0  0  0  0
 13 36  1  0  0  0  0
 13 37  1  0  0  0  0
 14 38  1  0  0  0  0
 16 39  1  0  0  0  0
 16 40  1  0  0  0  0
 16 41  1  0  0  0  0
 17 42  1  0  0  0  0
 17 43  1  0  0  0  0
 17 44  1  0  0  0  0
 18 45  1  0  0  0  0
 18 46  1  0  0  0  0
 20 47  1  0  0  0  0
M  END
> <Chemgauss4 Score>
-7.760650634766

> <Number of Confs>
47

> <og_smiles_field>
CCC1CC2(CCO1)CCN(C(=O)C1=C(C)C=C(C#N)C(=O)N1)C2

$$$$

  -OEChem-03232314423D

 59 61  0     1  0  0  0  0  0999 V2000
   49.0120   35.7793   15.9019 C   0  0  0  0  0  0  0  0  0  0  0  0
   40.3031   34.2795   13.0303 C   0  0  0  0  0  0  0  0  0  0  0  0
   40.3036   33.7050   14.2771 C   0  0  0  0  0  0  0  0  0  0  0  0
   38.6640   32.9183   13.2208 C   0  0  0  0  0  0  0  0  0  0  0  0
   41.2762   33.9558   15.3717 C   0  0  0  0  0  0  0  0  0  0  0  0
   46.7381   36.5777   16.0683 C   0  0  0  0  0  0  0  0  0  0  0  0
   44.1333   33.9567   16.4374 C   0  0  0  0  0  0  0  0  0  0  0  0
   37.5115   31.8320   11.2259 C   0  0  0  0  0  0  0  0  0  0  0  0
   36.0592   32.8614   12.9937 C   0  0  0  0  0  0  0  0  0  0  0  0
   45.4779   34.5274   16.8753 C   0  0  0  0  0  0  0  0  0  0  0  0
   44.3853   36.1009   15.4163 C   0  0  0  0  0  0  0  0  0  0  0  0
   37.1392   33.0139   10.3398 C   0  0  0  0  0  0  0  0  0  0  0  0
   35.7136   33.9482   11.9766 C   0  0  0  0  0  0  0  0  0  0  0  0
   37.4201   32.1862   12.7250 C   0  0  0  0  0  0  0  0  0  0  0  0
   43.3160   35.1980   16.0422 C   0  0  2  0  0  0  0  0  0  0  0  0
   42.6778   35.8630   17.2681 C   0  0  0  0  0  0  0  0  0  0  0  0
   49.5096   36.5061   18.7940 C   0  0  0  0  0  0  0  0  0  0  0  0
   48.7921   38.4575   17.3973 C   0  0  0  0  0  0  0  0  0  0  0  0
   47.1640   37.3323   18.9304 C   0  0  0  0  0  0  0  0  0  0  0  0
   47.9301   36.0887   16.8515 C   0  0  2  0  0  0  0  0  0  0  0  0
   48.3464   37.0949   17.9653 C   0  0  0  0  0  0  0  0  0  0  0  0
   49.8660   35.5297   15.1567 N   0  0  0  0  0  0  0  0  0  0  0  0
   39.2507   32.8338   14.3933 N   0  0  0  0  0  0  0  0  0  0  0  0
   45.6131   35.7751   16.1314 N   0  0  0  0  0  0  0  0  0  0  0  0
   42.2822   34.8670   15.0901 N   0  0  0  0  0  0  0  0  0  0  0  0
   41.1568   33.3469   16.4316 O   0  0  0  0  0  0  0  0  0  0  0  0
   46.8026   37.6257   15.4238 O   0  0  0  0  0  0  0  0  0  0  0  0
   39.2439   33.7762   12.3373 O   0  0  0  0  0  0  0  0  0  0  0  0
   35.8190   33.4594   10.6419 O   0  0  0  0  0  0  0  0  0  0  0  0
   40.9195   34.9998   12.5133 H   0  0  0  0  0  0  0  0  0  0  0  0
   44.2895   33.3053   15.5676 H   0  0  0  0  0  0  0  0  0  0  0  0
   43.6611   33.3629   17.2264 H   0  0  0  0  0  0  0  0  0  0  0  0
   36.8665   30.9704   10.9960 H   0  0  0  0  0  0  0  0  0  0  0  0
   38.5438   31.5233   10.9931 H   0  0  0  0  0  0  0  0  0  0  0  0
   36.0771   33.3157   14.0040 H   0  0  0  0  0  0  0  0  0  0  0  0
   35.2535   32.1033   13.0185 H   0  0  0  0  0  0  0  0  0  0  0  0
   45.4863   34.7658   17.9441 H   0  0  0  0  0  0  0  0  0  0  0  0
   46.3095   33.8516   16.6566 H   0  0  0  0  0  0  0  0  0  0  0  0
   44.5659   35.8593   14.3616 H   0  0  0  0  0  0  0  0  0  0  0  0
   44.1661   37.1711   15.4918 H   0  0  0  0  0  0  0  0  0  0  0  0
   37.8232   33.8460   10.5234 H   0  0  0  0  0  0  0  0  0  0  0  0
   37.2046   32.7534    9.2791 H   0  0  0  0  0  0  0  0  0  0  0  0
   34.7019   34.3411   12.1445 H   0  0  0  0  0  0  0  0  0  0  0  0
   36.4111   34.7877   12.0816 H   0  0  0  0  0  0  0  0  0  0  0  0
   37.4064   31.1884   13.2741 H   0  0  0  0  0  0  0  0  0  0  0  0
   42.1099   36.7338   16.9528 H   0  0  0  0  0  0  0  0  0  0  0  0
   43.4571   36.1699   17.9599 H   0  0  0  0  0  0  0  0  0  0  0  0
   42.0149   35.1562   17.7590 H   0  0  0  0  0  0  0  0  0  0  0  0
   49.2505   35.5332   19.2251 H   0  0  0  0  0  0  0  0  0  0  0  0
   50.4010   36.3573   18.1736 H   0  0  0  0  0  0  0  0  0  0  0  0
   49.7868   37.1758   19.6159 H   0  0  0  0  0  0  0  0  0  0  0  0
   48.0028   38.9233   16.7980 H   0  0  0  0  0  0  0  0  0  0  0  0
   49.0397   39.1556   18.2056 H   0  0  0  0  0  0  0  0  0  0  0  0
   49.6827   38.3628   16.7671 H   0  0  0  0  0  0  0  0  0  0  0  0
   46.2951   37.7520   18.4120 H   0  0  0  0  0  0  0  0  0  0  0  0
   46.8516   36.3973   19.4091 H   0  0  0  0  0  0  0  0  0  0  0  0
   47.4373   38.0360   19.7251 H   0  0  0  0  0  0  0  0  0  0  0  0
   47.6096   35.1520   17.3238 H   0  0  0  0  0  0  0  0  0  0  0  0
   42.3525   35.2844   14.1674 H   0  0  0  0  0  0  0  0  0  0  0  0
  1 20  1  0  0  0  0
  1 22  3  0  0  0  0
  2  3  2  0  0  0  0
  2 28  1  0  0  0  0
  3  5  1  0  0  0  0
  3 23  1  0  0  0  0
  4 14  1  0  0  0  0
  4 23  2  0  0  0  0
  4 28  1  0  0  0  0
  5 25  1  0  0  0  0
  5 26  2  0  0  0  0
  6 20  1  0  0  0  0
  6 24  1  0  0  0  0
  6 27  2  0  0  0  0
  7 10  1  0  0  0  0
  7 15  1  0  0  0  0
  8 12  1  0  0  0  0
  8 14  1  0  0  0  0
  9 13  1  0  0  0  0
  9 14  1  0  0  0  0
 10 24  1  0  0  0  0
 11 15  1  0  0  0  0
 11 24  1  0  0  0  0
 12 29  1  0  0  0  0
 13 29  1  0  0  0  0
 15 16  1  0  0  0  0
 15 25  1  0  0  0  0
 17 21  1  0  0  0  0
 18 21  1  0  0  0  0
 19 21  1  0  0  0  0
 20 21  1  0  0  0  0
  2 30  1  0  0  0  0
  7 31  1  0  0  0  0
  7 32  1  0  0  0  0
  8 33  1  0  0  0  0
  8 34  1  0  0  0  0
  9 35  1  0  0  0  0
  9 36  1  0  0  0  0
 10 37  1  0  0  0  0
 10 38  1  0  0  0  0
 11 39  1  0  0  0  0
 11 40  1  0  0  0  0
 12 41  1  0  0  0  0
 12 42  1  0  0  0  0
 13 43  1  0  0  0  0
 13 44  1  0  0  0  0
 14 45  1  0  0  0  0
 16 46  1  0  0  0  0
 16 47  1  0  0  0  0
 16 48  1  0  0  0  0
 17 49  1  0  0  0  0
 17 50  1  0  0  0  0
 17 51  1  0  0  0  0
 18 52  1  0  0  0  0
 18 53  1  0  0  0  0
 18 54  1  0  0  0  0
 19 55  1  0  0  0  0
 19 56  1  0  0  0  0
 19 57  1  0  0  0  0
 20 58  1  0  0  0  0
 25 59  1  0  0  0  0
M  END
> <Chemgauss4 Score>
-5.763153076172

> <Number of Confs>
200

> <og_smiles_field>
CC1(NC(=O)C2=COC(C3CCOCC3)=N2)CCN(C(=O)C(C#N)C(C)(C)C)C1

$$$$

  -OEChem-03232314423D

 41 44  0     1  0  0  0  0  0999 V2000
   41.5894   34.0444   14.0882 C   0  0  0  0  0  0  0  0  0  0  0  0
   37.9774   32.8590   13.9963 C   0  0  0  0  0  0  0  0  0  0  0  0
   37.8671   34.2407   12.0262 C   0  0  0  0  0  0  0  0  0  0  0  0
   40.3945   33.4300   14.3669 C   0  0  0  0  0  0  0  0  0  0  0  0
   39.1437   33.5103   13.6531 C   0  0  0  0  0  0  0  0  0  0  0  0
   46.3334   35.5261   17.1418 C   0  0  0  0  0  0  0  0  0  0  0  0
   44.6938   33.6096   16.5282 C   0  0  0  0  0  0  0  0  0  0  0  0
   44.2799   35.4892   15.6127 C   0  0  0  0  0  0  0  0  0  0  0  0
   46.5650   36.9668   16.8299 C   0  0  2  0  0  0  0  0  0  0  0  0
   47.8001   37.4200   16.0850 C   0  0  1  0  0  0  0  0  0  0  0  0
   43.9330   34.0257   15.2440 C   0  0  0  0  0  0  0  0  0  0  0  0
   47.6386   37.7670   17.5548 C   0  0  0  0  0  0  0  0  0  0  0  0
   47.3214   39.2047   17.8875 C   0  0  0  0  0  0  0  0  0  0  0  0
   48.5098   37.0981   18.5890 C   0  0  0  0  0  0  0  0  0  0  0  0
   48.8324   36.4648   15.5892 C   0  0  0  0  0  0  0  0  0  0  0  0
   39.0825   34.3027   12.5235 N   0  0  0  0  0  0  0  0  0  0  0  0
   40.5231   32.6641   15.4921 N   0  0  0  0  0  0  0  0  0  0  0  0
   41.7726   32.7845   15.9273 N   0  0  0  0  0  0  0  0  0  0  0  0
   42.4102   33.6126   15.0842 N   0  0  0  0  0  0  0  0  0  0  0  0
   45.2712   34.9368   16.5135 N   0  0  0  0  0  0  0  0  0  0  0  0
   47.0800   34.9567   17.9317 O   0  0  0  0  0  0  0  0  0  0  0  0
   48.3876   35.8809   14.4516 F   0  0  0  0  0  0  0  0  0  0  0  0
   49.0027   35.4805   16.5029 F   0  0  0  0  0  0  0  0  0  0  0  0
   36.7471   33.2488   12.8668 S   0  0  0  0  0  0  0  0  0  0  0  0
   41.9123   34.7185   13.3068 H   0  0  0  0  0  0  0  0  0  0  0  0
   37.7881   32.1936   14.8270 H   0  0  0  0  0  0  0  0  0  0  0  0
   37.5815   34.7857   11.1369 H   0  0  0  0  0  0  0  0  0  0  0  0
   44.0921   33.4237   17.4233 H   0  0  0  0  0  0  0  0  0  0  0  0
   45.4165   32.8025   16.3824 H   0  0  0  0  0  0  0  0  0  0  0  0
   44.7023   36.0809   14.7964 H   0  0  0  0  0  0  0  0  0  0  0  0
   43.5124   36.0650   16.1394 H   0  0  0  0  0  0  0  0  0  0  0  0
   45.6484   37.4955   16.5821 H   0  0  0  0  0  0  0  0  0  0  0  0
   47.6669   38.2252   15.3681 H   0  0  0  0  0  0  0  0  0  0  0  0
   44.4791   33.6777   14.2836 H   0  0  0  0  0  0  0  0  0  0  0  0
   48.1628   39.6768   18.4051 H   0  0  0  0  0  0  0  0  0  0  0  0
   46.4419   39.2666   18.5369 H   0  0  0  0  0  0  0  0  0  0  0  0
   47.1154   39.7763   16.9766 H   0  0  0  0  0  0  0  0  0  0  0  0
   49.2260   37.8106   19.0122 H   0  0  0  0  0  0  0  0  0  0  0  0
   49.0732   36.2706   18.1448 H   0  0  0  0  0  0  0  0  0  0  0  0
   47.9022   36.6975   19.4075 H   0  0  0  0  0  0  0  0  0  0  0  0
   49.7873   36.9542   15.3984 H   0  0  0  0  0  0  0  0  0  0  0  0
  1  4  2  0  0  0  0
  1 19  1  0  0  0  0
  2  5  2  0  0  0  0
  2 24  1  0  0  0  0
  3 16  2  0  0  0  0
  3 24  1  0  0  0  0
  4  5  1  0  0  0  0
  4 17  1  0  0  0  0
  5 16  1  0  0  0  0
  6  9  1  0  0  0  0
  6 20  1  0  0  0  0
  6 21  2  0  0  0  0
  7 11  1  0  0  0  0
  7 20  1  0  0  0  0
  8 11  1  0  0  0  0
  8 20  1  0  0  0  0
  9 10  1  0  0  0  0
  9 12  1  0  0  0  0
 10 12  1  0  0  0  0
 10 15  1  0  0  0  0
 11 19  1  0  0  0  0
 12 13  1  0  0  0  0
 12 14  1  0  0  0  0
 15 22  1  0  0  0  0
 15 23  1  0  0  0  0
 17 18  2  0  0  0  0
 18 19  1  0  0  0  0
  1 25  1  0  0  0  0
  2 26  1  0  0  0  0
  3 27  1  0  0  0  0
  7 28  1  0  0  0  0
  7 29  1  0  0  0  0
  8 30  1  0  0  0  0
  8 31  1  0  0  0  0
  9 32  1  0  0  0  0
 10 33  1  0  0  0  0
 11 34  1  0  0  0  0
 13 35  1  0  0  0  0
 13 36  1  0  0  0  0
 13 37  1  0  0  0  0
 14 38  1  0  0  0  0
 14 39  1  0  0  0  0
 14 40  1  0  0  0  0
 15 41  1  0  0  0  0
M  END
> <Chemgauss4 Score>
-7.716812133789

> <Number of Confs>
120

> <og_smiles_field>
CC1(C)[C@@H](C(F)F)[C@H]1C(=O)N1CC(N2C=C(C3=CSC=N3)N=N2)C1

$$$$

  -OEChem-03232314423D

 53 56  0     1  0  0  0  0  0999 V2000
   39.5859   29.4071    9.7773 C   0  0  0  0  0  0  0  0  0  0  0  0
   40.9210   29.8094    9.7404 C   0  0  0  0  0  0  0  0  0  0  0  0
   38.7285   29.9235   10.7489 C   0  0  0  0  0  0  0  0  0  0  0  0
   41.3987   30.7279   10.6752 C   0  0  0  0  0  0  0  0  0  0  0  0
   39.2062   30.8420   11.6836 C   0  0  0  0  0  0  0  0  0  0  0  0
   40.5413   31.2443   11.6468 C   0  0  0  0  0  0  0  0  0  0  0  0
   44.2007   34.9187   14.9399 C   0  0  0  0  0  0  0  0  0  0  0  0
   47.9690   36.2443   17.7268 C   0  0  0  0  0  0  0  0  0  0  0  0
   46.6542   36.7691   18.3024 C   0  0  0  0  0  0  0  0  0  0  0  0
   47.6125   37.6854   14.9369 C   0  0  0  0  0  0  0  0  0  0  0  0
   46.9286   36.9108   13.8450 C   0  0  0  0  0  0  0  0  0  0  0  0
   47.5894   35.3294   16.5655 C   0  0  0  0  0  0  0  0  0  0  0  0
   45.5434   36.1462   17.4612 C   0  0  0  0  0  0  0  0  0  0  0  0
   41.3780   33.1272   14.6914 C   0  0  0  0  0  0  0  0  0  0  0  0
   42.4048   32.6202   12.5915 C   0  0  0  0  0  0  0  0  0  0  0  0
   46.2868   37.0263   15.1999 C   0  0  0  0  0  0  0  0  0  0  0  0
   42.4455   33.6376   13.7318 C   0  0  2  0  0  0  0  0  0  0  0  0
   40.2705   32.6222   13.7515 C   0  0  1  0  0  0  0  0  0  0  0  0
   46.2013   35.8033   16.1197 C   0  0  0  0  0  0  0  0  0  0  0  0
   39.3048   33.7446   13.3726 C   0  0  0  0  0  0  0  0  0  0  0  0
   41.0143   32.1548   12.5733 N   0  0  3  0  0  0  0  0  0  0  0  0
   43.7406   33.7506   14.3380 N   0  0  0  0  0  0  0  0  0  0  0  0
   45.4835   34.7471   15.4432 N   0  0  0  0  0  0  0  0  0  0  0  0
   43.5554   35.9635   15.0159 O   0  0  0  0  0  0  0  0  0  0  0  0
   39.2141   28.6916    9.0495 H   0  0  0  0  0  0  0  0  0  0  0  0
   41.5883   29.4073    8.9841 H   0  0  0  0  0  0  0  0  0  0  0  0
   37.6888   29.6100   10.7774 H   0  0  0  0  0  0  0  0  0  0  0  0
   42.4407   31.0349   10.6379 H   0  0  0  0  0  0  0  0  0  0  0  0
   38.5287   31.2378   12.4360 H   0  0  0  0  0  0  0  0  0  0  0  0
   48.6202   37.0593   17.3932 H   0  0  0  0  0  0  0  0  0  0  0  0
   48.5162   35.6854   18.4952 H   0  0  0  0  0  0  0  0  0  0  0  0
   46.5586   36.4636   19.3511 H   0  0  0  0  0  0  0  0  0  0  0  0
   46.6071   37.8628   18.2749 H   0  0  0  0  0  0  0  0  0  0  0  0
   48.5027   37.2546   15.3781 H   0  0  0  0  0  0  0  0  0  0  0  0
   47.6305   38.7651   14.8535 H   0  0  0  0  0  0  0  0  0  0  0  0
   46.4877   37.4711   13.0296 H   0  0  0  0  0  0  0  0  0  0  0  0
   47.3609   35.9612   13.5548 H   0  0  0  0  0  0  0  0  0  0  0  0
   48.3194   35.4519   15.7521 H   0  0  0  0  0  0  0  0  0  0  0  0
   47.6108   34.2690   16.8480 H   0  0  0  0  0  0  0  0  0  0  0  0
   45.0898   35.2753   17.9519 H   0  0  0  0  0  0  0  0  0  0  0  0
   44.7376   36.8813   17.3201 H   0  0  0  0  0  0  0  0  0  0  0  0
   41.7627   32.2879   15.2853 H   0  0  0  0  0  0  0  0  0  0  0  0
   41.0311   33.9052   15.3788 H   0  0  0  0  0  0  0  0  0  0  0  0
   42.6882   33.0715   11.6348 H   0  0  0  0  0  0  0  0  0  0  0  0
   43.0734   31.7739   12.7948 H   0  0  0  0  0  0  0  0  0  0  0  0
   45.4172   37.6658   15.2916 H   0  0  0  0  0  0  0  0  0  0  0  0
   42.1726   34.6295   13.3537 H   0  0  0  0  0  0  0  0  0  0  0  0
   39.7201   31.8151   14.2403 H   0  0  0  0  0  0  0  0  0  0  0  0
   39.8477   34.5535   12.8842 H   0  0  0  0  0  0  0  0  0  0  0  0
   38.8177   34.1338   14.2664 H   0  0  0  0  0  0  0  0  0  0  0  0
   38.5438   33.3661   12.6905 H   0  0  0  0  0  0  0  0  0  0  0  0
   44.3512   32.9396   14.3277 H   0  0  0  0  0  0  0  0  0  0  0  0
   45.9250   33.8391   15.3788 H   0  0  0  0  0  0  0  0  0  0  0  0
  1  2  2  0  0  0  0
  1  3  1  0  0  0  0
  2  4  1  0  0  0  0
  3  5  2  0  0  0  0
  4  6  2  0  0  0  0
  5  6  1  0  0  0  0
  6 21  1  0  0  0  0
  7 22  1  0  0  0  0
  7 23  1  0  0  0  0
  7 24  2  0  0  0  0
  8  9  1  0  0  0  0
  8 12  1  0  0  0  0
  9 13  1  0  0  0  0
 10 11  1  0  0  0  0
 10 16  1  0  0  0  0
 11 16  1  0  0  0  0
 12 19  1  0  0  0  0
 13 19  1  0  0  0  0
 14 17  1  0  0  0  0
 14 18  1  0  0  0  0
 15 17  1  0  0  0  0
 15 21  1  0  0  0  0
 16 19  1  0  0  0  0
 17 22  1  0  0  0  0
 18 20  1  0  0  0  0
 18 21  1  0  0  0  0
 19 23  1  0  0  0  0
  1 25  1  0  0  0  0
  2 26  1  0  0  0  0
  3 27  1  0  0  0  0
  4 28  1  0  0  0  0
  5 29  1  0  0  0  0
  8 30  1  0  0  0  0
  8 31  1  0  0  0  0
  9 32  1  0  0  0  0
  9 33  1  0  0  0  0
 10 34  1  0  0  0  0
 10 35  1  0  0  0  0
 11 36  1  0  0  0  0
 11 37  1  0  0  0  0
 12 38  1  0  0  0  0
 12 39  1  0  0  0  0
 13 40  1  0  0  0  0
 13 41  1  0  0  0  0
 14 42  1  0  0  0  0
 14 43  1  0  0  0  0
 15 44  1  0  0  0  0
 15 45  1  0  0  0  0
 16 46  1  0  0  0  0
 17 47  1  0  0  0  0
 18 48  1  0  0  0  0
 20 49  1  0  0  0  0
 20 50  1  0  0  0  0
 20 51  1  0  0  0  0
 22 52  1  0  0  0  0
 23 53  1  0  0  0  0
M  END
> <Chemgauss4 Score>
-6.723178386688

> <Number of Confs>
69

> <og_smiles_field>
CC1CC(NC(=O)NC2(C3CC3)CCCC2)CN1C1=CC=CC=C1

$$$$

  -OEChem-03232314423D

 53 55  0     1  0  0  0  0  0999 V2000
   38.7393   34.3237   11.5148 C   0  0  0  0  0  0  0  0  0  0  0  0
   39.9344   35.0298   11.5953 C   0  0  0  0  0  0  0  0  0  0  0  0
   39.3327   33.1928   13.5212 C   0  0  0  0  0  0  0  0  0  0  0  0
   42.6422   35.7544   13.9811 C   0  0  0  0  0  0  0  0  0  0  0  0
   38.4253   33.3859   12.4921 C   0  0  0  0  0  0  0  0  0  0  0  0
   40.7743   34.7633   12.6646 C   0  0  0  0  0  0  0  0  0  0  0  0
   42.0142   35.4588   12.7974 C   0  0  0  0  0  0  0  0  0  0  0  0
   48.7466   38.8925   17.1201 C   0  0  0  0  0  0  0  0  0  0  0  0
   45.8381   35.9042   14.7884 C   0  0  0  0  0  0  0  0  0  0  0  0
   48.8633   35.5193   16.2734 C   0  0  0  0  0  0  0  0  0  0  0  0
   49.3031   36.4327   17.4169 C   0  0  0  0  0  0  0  0  0  0  0  0
   47.4346   34.9958   16.4340 C   0  0  0  0  0  0  0  0  0  0  0  0
   47.1054   37.3451   18.1141 C   0  0  0  0  0  0  0  0  0  0  0  0
   46.0792   37.0527   17.0202 C   0  0  0  0  0  0  0  0  0  0  0  0
   52.5120   39.6730   16.8199 C   0  0  0  0  0  0  0  0  0  0  0  0
   45.5055   38.1751   13.8235 C   0  0  0  0  0  0  0  0  0  0  0  0
   50.0804   39.0697   16.4395 C   0  0  0  0  0  0  0  0  0  0  0  0
   51.1528   39.4196   17.4568 C   0  0  0  0  0  0  0  0  0  0  0  0
   44.8215   36.9648   14.4400 C   0  0  1  0  0  0  0  0  0  0  0  0
   40.5033   33.8598   13.6331 N   0  0  0  0  0  0  0  0  0  0  0  0
   42.7573   35.9327   11.7521 N   0  0  0  0  0  0  0  0  0  0  0  0
   43.8392   36.5189   12.2531 N   0  0  0  0  0  0  0  0  0  0  0  0
   43.7683   36.4108   13.5897 N   0  0  0  0  0  0  0  0  0  0  0  0
   48.4357   37.6057   17.5638 N   0  0  0  0  0  0  0  0  0  0  0  0
   46.4344   36.0008   16.0538 N   0  0  0  0  0  0  0  0  0  0  0  0
   48.0008   39.8663   17.2544 O   0  0  0  0  0  0  0  0  0  0  0  0
   46.0982   35.0243   13.9637 O   0  0  0  0  0  0  0  0  0  0  0  0
   36.9599   32.4977   12.4249 Cl  0  0  0  0  0  0  0  0  0  0  0  0
   38.0636   34.5136   10.6853 H   0  0  0  0  0  0  0  0  0  0  0  0
   40.1862   35.7635   10.8361 H   0  0  0  0  0  0  0  0  0  0  0  0
   39.1457   32.4745   14.3138 H   0  0  0  0  0  0  0  0  0  0  0  0
   42.4021   35.5660   15.0183 H   0  0  0  0  0  0  0  0  0  0  0  0
   48.9138   36.0993   15.3434 H   0  0  0  0  0  0  0  0  0  0  0  0
   49.5670   34.6865   16.1542 H   0  0  0  0  0  0  0  0  0  0  0  0
   49.3320   35.8535   18.3431 H   0  0  0  0  0  0  0  0  0  0  0  0
   50.3260   36.7901   17.2481 H   0  0  0  0  0  0  0  0  0  0  0  0
   47.2607   34.0791   15.8598 H   0  0  0  0  0  0  0  0  0  0  0  0
   47.2860   34.7306   17.4870 H   0  0  0  0  0  0  0  0  0  0  0  0
   46.7967   38.1875   18.7432 H   0  0  0  0  0  0  0  0  0  0  0  0
   47.1647   36.4721   18.7754 H   0  0  0  0  0  0  0  0  0  0  0  0
   45.1248   36.7953   17.4908 H   0  0  0  0  0  0  0  0  0  0  0  0
   45.9097   37.9663   16.4381 H   0  0  0  0  0  0  0  0  0  0  0  0
   52.4504   40.4641   16.0657 H   0  0  0  0  0  0  0  0  0  0  0  0
   52.9031   38.7701   16.3410 H   0  0  0  0  0  0  0  0  0  0  0  0
   53.2324   39.9874   17.5820 H   0  0  0  0  0  0  0  0  0  0  0  0
   45.9749   37.9120   12.8691 H   0  0  0  0  0  0  0  0  0  0  0  0
   44.8012   38.9905   13.6242 H   0  0  0  0  0  0  0  0  0  0  0  0
   46.2833   38.5597   14.4920 H   0  0  0  0  0  0  0  0  0  0  0  0
   49.9610   39.8831   15.7233 H   0  0  0  0  0  0  0  0  0  0  0  0
   50.3125   38.1504   15.9027 H   0  0  0  0  0  0  0  0  0  0  0  0
   51.2492   38.6241   18.2053 H   0  0  0  0  0  0  0  0  0  0  0  0
   50.8415   40.3272   17.9869 H   0  0  0  0  0  0  0  0  0  0  0  0
   44.3635   37.2580   15.3890 H   0  0  0  0  0  0  0  0  0  0  0  0
  1  2  1  0  0  0  0
  1  5  2  0  0  0  0
  2  6  2  0  0  0  0
  3  5  1  0  0  0  0
  3 20  2  0  0  0  0
  4  7  2  0  0  0  0
  4 23  1  0  0  0  0
  5 28  1  0  0  0  0
  6  7  1  0  0  0  0
  6 20  1  0  0  0  0
  7 21  1  0  0  0  0
  8 17  1  0  0  0  0
  8 24  1  0  0  0  0
  8 26  2  0  0  0  0
  9 19  1  0  0  0  0
  9 25  1  0  0  0  0
  9 27  2  0  0  0  0
 10 11  1  0  0  0  0
 10 12  1  0  0  0  0
 11 24  1  0  0  0  0
 12 25  1  0  0  0  0
 13 14  1  0  0  0  0
 13 24  1  0  0  0  0
 14 25  1  0  0  0  0
 15 18  1  0  0  0  0
 16 19  1  0  0  0  0
 17 18  1  0  0  0  0
 19 23  1  0  0  0  0
 21 22  2  0  0  0  0
 22 23  1  0  0  0  0
  1 29  1  0  0  0  0
  2 30  1  0  0  0  0
  3 31  1  0  0  0  0
  4 32  1  0  0  0  0
 10 33  1  0  0  0  0
 10 34  1  0  0  0  0
 11 35  1  0  0  0  0
 11 36  1  0  0  0  0
 12 37  1  0  0  0  0
 12 38  1  0  0  0  0
 13 39  1  0  0  0  0
 13 40  1  0  0  0  0
 14 41  1  0  0  0  0
 14 42  1  0  0  0  0
 15 43  1  0  0  0  0
 15 44  1  0  0  0  0
 15 45  1  0  0  0  0
 16 46  1  0  0  0  0
 16 47  1  0  0  0  0
 16 48  1  0  0  0  0
 17 49  1  0  0  0  0
 17 50  1  0  0  0  0
 18 51  1  0  0  0  0
 18 52  1  0  0  0  0
 19 53  1  0  0  0  0
M  END
> <Chemgauss4 Score>
-6.095062255859

> <Number of Confs>
200

> <og_smiles_field>
CCCC(=O)N1CCCN(C(=O)C(C)N2C=C(C3=CC=C(Cl)C=N3)N=N2)CC1

$$$$

  -OEChem-03232314423D

 44 46  0     0  0  0  0  0  0999 V2000
   40.8109   33.9183   14.2629 C   0  0  0  0  0  0  0  0  0  0  0  0
   42.1871   33.2184   12.4046 C   0  0  0  0  0  0  0  0  0  0  0  0
   39.7360   33.2020   13.7367 C   0  0  0  0  0  0  0  0  0  0  0  0
   41.1122   32.5020   11.8784 C   0  0  0  0  0  0  0  0  0  0  0  0
   44.6946   35.3699   15.4216 C   0  0  0  0  0  0  0  0  0  0  0  0
   42.0365   33.9266   13.5969 C   0  0  0  0  0  0  0  0  0  0  0  0
   39.8866   32.4938   12.5444 C   0  0  0  0  0  0  0  0  0  0  0  0
   44.6329   36.0702   14.2019 C   0  0  0  0  0  0  0  0  0  0  0  0
   43.6845   34.4431   15.3368 C   0  0  0  0  0  0  0  0  0  0  0  0
   48.6329   39.3707   16.3271 C   0  0  0  0  0  0  0  0  0  0  0  0
   48.3414   37.0533   16.6610 C   0  0  0  0  0  0  0  0  0  0  0  0
   48.6285   40.7919   16.3650 C   0  0  0  0  0  0  0  0  0  0  0  0
   45.4912   37.1807   13.7538 C   0  0  0  0  0  0  0  0  0  0  0  0
   43.2377   33.4122   16.2957 C   0  0  0  0  0  0  0  0  0  0  0  0
   49.4803   42.7848   15.3059 C   0  0  0  0  0  0  0  0  0  0  0  0
   45.6307   35.5805   16.5398 C   0  0  0  0  0  0  0  0  0  0  0  0
   47.9519   35.6851   17.1412 C   0  0  0  0  0  0  0  0  0  0  0  0
   43.6607   35.6261   13.4009 N   0  0  0  0  0  0  0  0  0  0  0  0
   49.3010   38.6625   15.4416 N   0  0  0  0  0  0  0  0  0  0  0  0
   49.1292   37.3032   15.6369 N   0  0  0  0  0  0  0  0  0  0  0  0
   43.1021   34.6367   14.1188 N   0  0  0  0  0  0  0  0  0  0  0  0
   46.9566   35.0641   16.2725 N   0  0  0  0  0  0  0  0  0  0  0  0
   48.0039   41.5010   17.1938 O   0  0  0  0  0  0  0  0  0  0  0  0
   49.4032   41.3568   15.3717 O   0  0  0  0  0  0  0  0  0  0  0  0
   38.8543   31.8059   12.0392 F   0  0  0  0  0  0  0  0  0  0  0  0
   47.7464   38.4453   17.4670 S   0  0  0  0  0  0  0  0  0  0  0  0
   40.6792   34.4664   15.1927 H   0  0  0  0  0  0  0  0  0  0  0  0
   43.1371   33.2155   11.8757 H   0  0  0  0  0  0  0  0  0  0  0  0
   38.7814   33.1960   14.2544 H   0  0  0  0  0  0  0  0  0  0  0  0
   41.2290   31.9498   10.9506 H   0  0  0  0  0  0  0  0  0  0  0  0
   46.3772   36.8081   13.2121 H   0  0  0  0  0  0  0  0  0  0  0  0
   44.9571   37.8745   13.0807 H   0  0  0  0  0  0  0  0  0  0  0  0
   45.8512   37.7955   14.5978 H   0  0  0  0  0  0  0  0  0  0  0  0
   42.4644   33.8095   16.9728 H   0  0  0  0  0  0  0  0  0  0  0  0
   42.8167   32.5292   15.7861 H   0  0  0  0  0  0  0  0  0  0  0  0
   44.0690   33.0387   16.9173 H   0  0  0  0  0  0  0  0  0  0  0  0
   50.1256   43.0777   14.4741 H   0  0  0  0  0  0  0  0  0  0  0  0
   49.8808   43.1727   16.2459 H   0  0  0  0  0  0  0  0  0  0  0  0
   48.4775   43.1879   15.1455 H   0  0  0  0  0  0  0  0  0  0  0  0
   45.7515   36.6524   16.7824 H   0  0  0  0  0  0  0  0  0  0  0  0
   45.2877   35.0967   17.4726 H   0  0  0  0  0  0  0  0  0  0  0  0
   48.8257   35.0256   17.1783 H   0  0  0  0  0  0  0  0  0  0  0  0
   47.5336   35.7279   18.1524 H   0  0  0  0  0  0  0  0  0  0  0  0
   46.9699   34.0532   16.4262 H   0  0  0  0  0  0  0  0  0  0  0  0
  1  3  1  0  0  0  0
  1  6  2  0  0  0  0
  2  4  2  0  0  0  0
  2  6  1  0  0  0  0
  3  7  2  0  0  0  0
  4  7  1  0  0  0  0
  5  8  1  0  0  0  0
  5  9  2  0  0  0  0
  5 16  1  0  0  0  0
  6 21  1  0  0  0  0
  7 25  1  0  0  0  0
  8 13  1  0  0  0  0
  8 18  2  0  0  0  0
  9 14  1  0  0  0  0
  9 21  1  0  0  0  0
 10 12  1  0  0  0  0
 10 19  2  0  0  0  0
 10 26  1  0  0  0  0
 11 17  1  0  0  0  0
 11 20  2  0  0  0  0
 11 26  1  0  0  0  0
 12 23  2  0  0  0  0
 12 24  1  0  0  0  0
 15 24  1  0  0  0  0
 16 22  1  0  0  0  0
 17 22  1  0  0  0  0
 18 21  1  0  0  0  0
 19 20  1  0  0  0  0
  1 27  1  0  0  0  0
  2 28  1  0  0  0  0
  3 29  1  0  0  0  0
  4 30  1  0  0  0  0
 13 31  1  0  0  0  0
 13 32  1  0  0  0  0
 13 33  1  0  0  0  0
 14 34  1  0  0  0  0
 14 35  1  0  0  0  0
 14 36  1  0  0  0  0
 15 37  1  0  0  0  0
 15 38  1  0  0  0  0
 15 39  1  0  0  0  0
 16 40  1  0  0  0  0
 16 41  1  0  0  0  0
 17 42  1  0  0  0  0
 17 43  1  0  0  0  0
 22 44  1  0  0  0  0
M  END
> <Chemgauss4 Score>
-6.381237030029

> <Number of Confs>
200

> <og_smiles_field>
COC(=O)C1=NN=C(CNCC2=C(C)N(C3=CC=C(F)C=C3)N=C2C)S1

$$$$

  -OEChem-03232314423D

 49 52  0     1  0  0  0  0  0999 V2000
   41.9401   34.6183   10.4289 C   0  0  0  0  0  0  0  0  0  0  0  0
   42.9958   34.3916   11.3070 C   0  0  0  0  0  0  0  0  0  0  0  0
   38.7696   33.6553   13.9915 C   0  0  0  0  0  0  0  0  0  0  0  0
   40.6233   34.4931   10.8725 C   0  0  0  0  0  0  0  0  0  0  0  0
   42.7386   34.0388   12.6321 C   0  0  0  0  0  0  0  0  0  0  0  0
   39.0267   34.0082   12.6665 C   0  0  0  0  0  0  0  0  0  0  0  0
   39.8252   33.4286   14.8697 C   0  0  0  0  0  0  0  0  0  0  0  0
   42.5406   32.2144   16.1622 C   0  0  0  0  0  0  0  0  0  0  0  0
   43.6689   32.6142   16.9174 C   0  0  0  0  0  0  0  0  0  0  0  0
   51.7252   39.0942   16.5102 C   0  0  0  0  0  0  0  0  0  0  0  0
   40.3459   34.1387   12.2028 C   0  0  0  0  0  0  0  0  0  0  0  0
   41.4194   33.9082   13.0958 C   0  0  0  0  0  0  0  0  0  0  0  0
   41.1420   33.5538   14.4262 C   0  0  0  0  0  0  0  0  0  0  0  0
   50.3210   38.9946   16.5280 C   0  0  0  0  0  0  0  0  0  0  0  0
   42.1882   33.3019   15.3972 C   0  0  0  0  0  0  0  0  0  0  0  0
   43.9257   33.9173   16.5598 C   0  0  0  0  0  0  0  0  0  0  0  0
   49.9010   40.1672   17.1070 C   0  0  0  0  0  0  0  0  0  0  0  0
   49.4469   37.8950   16.0444 C   0  0  0  0  0  0  0  0  0  0  0  0
   44.9285   34.8326   16.9864 C   0  0  0  0  0  0  0  0  0  0  0  0
   46.7436   37.3068   14.3362 C   0  0  0  0  0  0  0  0  0  0  0  0
   45.8941   37.1606   16.7349 C   0  0  0  0  0  0  0  0  0  0  0  0
   47.1073   37.1049   15.8039 C   0  0  2  0  0  0  0  0  0  0  0  0
   52.1676   40.2396   17.0359 N   0  0  0  0  0  0  0  0  0  0  0  0
   51.0349   40.8705   17.3894 N   0  0  0  0  0  0  0  0  0  0  0  0
   48.0867   38.0950   16.2030 N   0  0  0  0  0  0  0  0  0  0  0  0
   44.9310   36.1293   16.4220 N   0  0  0  0  0  0  0  0  0  0  0  0
   49.9599   36.8883   15.5630 O   0  0  0  0  0  0  0  0  0  0  0  0
   45.8088   34.5066   17.8266 O   0  0  0  0  0  0  0  0  0  0  0  0
   43.0276   34.3440   15.6335 O   0  0  0  0  0  0  0  0  0  0  0  0
   48.6473   40.5497   17.3482 F   0  0  0  0  0  0  0  0  0  0  0  0
   42.1406   34.8929    9.3973 H   0  0  0  0  0  0  0  0  0  0  0  0
   44.0206   34.4889   10.9607 H   0  0  0  0  0  0  0  0  0  0  0  0
   37.7445   33.5586   14.3376 H   0  0  0  0  0  0  0  0  0  0  0  0
   39.8141   34.6749   10.1682 H   0  0  0  0  0  0  0  0  0  0  0  0
   43.5945   33.8715   13.2820 H   0  0  0  0  0  0  0  0  0  0  0  0
   38.1861   34.1808   11.9978 H   0  0  0  0  0  0  0  0  0  0  0  0
   39.6034   33.1543   15.8987 H   0  0  0  0  0  0  0  0  0  0  0  0
   42.0484   31.2524   16.1783 H   0  0  0  0  0  0  0  0  0  0  0  0
   44.2223   32.0227   17.6330 H   0  0  0  0  0  0  0  0  0  0  0  0
   52.4468   38.3814   16.1366 H   0  0  0  0  0  0  0  0  0  0  0  0
   46.2757   38.2816   14.1609 H   0  0  0  0  0  0  0  0  0  0  0  0
   47.6406   37.2614   13.7085 H   0  0  0  0  0  0  0  0  0  0  0  0
   46.0534   36.5284   13.9950 H   0  0  0  0  0  0  0  0  0  0  0  0
   45.4011   38.1357   16.6518 H   0  0  0  0  0  0  0  0  0  0  0  0
   46.2141   37.0448   17.7762 H   0  0  0  0  0  0  0  0  0  0  0  0
   47.5681   36.1154   15.9063 H   0  0  0  0  0  0  0  0  0  0  0  0
   51.1082   41.7832   17.8211 H   0  0  0  0  0  0  0  0  0  0  0  0
   47.7363   38.9250   16.6667 H   0  0  0  0  0  0  0  0  0  0  0  0
   44.2476   36.3392   15.7019 H   0  0  0  0  0  0  0  0  0  0  0  0
  1  2  2  0  0  0  0
  1  4  1  0  0  0  0
  2  5  1  0  0  0  0
  3  6  2  0  0  0  0
  3  7  1  0  0  0  0
  4 11  2  0  0  0  0
  5 12  2  0  0  0  0
  6 11  1  0  0  0  0
  7 13  2  0  0  0  0
  8  9  1  0  0  0  0
  8 15  2  0  0  0  0
  9 16  2  0  0  0  0
 10 14  1  0  0  0  0
 10 23  2  0  0  0  0
 11 12  1  0  0  0  0
 12 13  1  0  0  0  0
 13 15  1  0  0  0  0
 14 17  2  0  0  0  0
 14 18  1  0  0  0  0
 15 29  1  0  0  0  0
 16 19  1  0  0  0  0
 16 29  1  0  0  0  0
 17 24  1  0  0  0  0
 17 30  1  0  0  0  0
 18 25  1  0  0  0  0
 18 27  2  0  0  0  0
 19 26  1  0  0  0  0
 19 28  2  0  0  0  0
 20 22  1  0  0  0  0
 21 22  1  0  0  0  0
 21 26  1  0  0  0  0
 22 25  1  0  0  0  0
 23 24  1  0  0  0  0
  1 31  1  0  0  0  0
  2 32  1  0  0  0  0
  3 33  1  0  0  0  0
  4 34  1  0  0  0  0
  5 35  1  0  0  0  0
  6 36  1  0  0  0  0
  7 37  1  0  0  0  0
  8 38  1  0  0  0  0
  9 39  1  0  0  0  0
 10 40  1  0  0  0  0
 20 41  1  0  0  0  0
 20 42  1  0  0  0  0
 20 43  1  0  0  0  0
 21 44  1  0  0  0  0
 21 45  1  0  0  0  0
 22 46  1  0  0  0  0
 24 47  1  0  0  0  0
 25 48  1  0  0  0  0
 26 49  1  0  0  0  0
M  END
> <Chemgauss4 Score>
-6.072797775269

> <Number of Confs>
200

> <og_smiles_field>
CC(CNC(=O)C1=CC=C(C2=CC=CC3=CC=CC=C23)O1)NC(=O)C1=C(F)NN=C1

$$$$

  -OEChem-03232314423D

 53 55  0     1  0  0  0  0  0999 V2000
   46.6992   37.3116   17.3893 C   0  0  0  0  0  0  0  0  0  0  0  0
   48.3279   38.3856   15.9644 C   0  0  0  0  0  0  0  0  0  0  0  0
   48.9581   37.6487   18.1772 C   0  0  0  0  0  0  0  0  0  0  0  0
   40.7441   31.9067   12.5653 C   0  0  0  0  0  0  0  0  0  0  0  0
   38.1528   32.2652   12.0017 C   0  0  0  0  0  0  0  0  0  0  0  0
   40.0424   32.8312   13.3124 C   0  0  0  0  0  0  0  0  0  0  0  0
   47.0320   37.9153   16.1768 C   0  0  0  0  0  0  0  0  0  0  0  0
   38.7023   33.0165   13.0211 C   0  0  0  0  0  0  0  0  0  0  0  0
   47.6622   37.1784   18.3896 C   0  0  0  0  0  0  0  0  0  0  0  0
   49.2909   38.2523   16.9646 C   0  0  0  0  0  0  0  0  0  0  0  0
   40.7206   33.5812   14.3775 C   0  0  0  0  0  0  0  0  0  0  0  0
   44.8579   37.0167   13.0898 C   0  0  0  0  0  0  0  0  0  0  0  0
   42.3257   34.5494   12.6572 C   0  0  0  0  0  0  0  0  0  0  0  0
   42.7256   35.9914   12.3651 C   0  0  0  0  0  0  0  0  0  0  0  0
   43.0272   36.4362   14.7575 C   0  0  0  0  0  0  0  0  0  0  0  0
   42.6126   35.0011   15.1085 C   0  0  2  0  0  0  0  0  0  0  0  0
   37.8579   33.9896   13.7687 C   0  0  0  0  0  0  0  0  0  0  0  0
   43.4094   32.7485   15.8436 C   0  0  0  0  0  0  0  0  0  0  0  0
   45.9896   38.0593   15.0947 C   0  0  0  0  0  0  0  0  0  0  0  0
   45.9335   36.8726   14.1366 C   0  0  0  0  0  0  0  0  0  0  0  0
   43.8231   34.1256   15.4451 C   0  0  0  0  0  0  0  0  0  0  0  0
   40.1806   31.1852   11.5733 N   0  0  0  0  0  0  0  0  0  0  0  0
   38.8636   31.3676   11.2867 N   0  0  0  0  0  0  0  0  0  0  0  0
   41.8120   34.3881   14.0295 N   0  0  0  0  0  0  0  0  0  0  0  0
   43.6033   36.5053   13.4125 N   0  0  0  0  0  0  0  0  0  0  0  0
   40.2745   33.4312   15.5143 O   0  0  0  0  0  0  0  0  0  0  0  0
   45.1273   37.5647   12.0180 O   0  0  0  0  0  0  0  0  0  0  0  0
   47.3423   36.5987   19.5539 F   0  0  0  0  0  0  0  0  0  0  0  0
   50.5354   38.7037   16.7607 F   0  0  0  0  0  0  0  0  0  0  0  0
   45.6923   36.9422   17.5644 H   0  0  0  0  0  0  0  0  0  0  0  0
   48.5965   38.8568   15.0226 H   0  0  0  0  0  0  0  0  0  0  0  0
   49.7075   37.5442   18.9556 H   0  0  0  0  0  0  0  0  0  0  0  0
   41.7965   31.7082   12.7368 H   0  0  0  0  0  0  0  0  0  0  0  0
   37.1101   32.3580   11.7188 H   0  0  0  0  0  0  0  0  0  0  0  0
   41.5842   34.2285   11.9203 H   0  0  0  0  0  0  0  0  0  0  0  0
   43.1907   33.8837   12.5543 H   0  0  0  0  0  0  0  0  0  0  0  0
   43.2110   36.0490   11.3857 H   0  0  0  0  0  0  0  0  0  0  0  0
   41.8393   36.6362   12.3289 H   0  0  0  0  0  0  0  0  0  0  0  0
   42.1445   37.0879   14.7579 H   0  0  0  0  0  0  0  0  0  0  0  0
   43.7069   36.8285   15.5169 H   0  0  0  0  0  0  0  0  0  0  0  0
   41.9902   35.0483   16.0096 H   0  0  0  0  0  0  0  0  0  0  0  0
   37.3919   33.5058   14.6366 H   0  0  0  0  0  0  0  0  0  0  0  0
   38.4506   34.8431   14.1247 H   0  0  0  0  0  0  0  0  0  0  0  0
   37.0624   34.4007   13.1325 H   0  0  0  0  0  0  0  0  0  0  0  0
   42.7528   32.8037   16.7199 H   0  0  0  0  0  0  0  0  0  0  0  0
   44.2796   32.1391   16.1093 H   0  0  0  0  0  0  0  0  0  0  0  0
   42.8574   32.2561   15.0360 H   0  0  0  0  0  0  0  0  0  0  0  0
   46.1504   38.9929   14.5400 H   0  0  0  0  0  0  0  0  0  0  0  0
   45.0085   38.1670   15.5754 H   0  0  0  0  0  0  0  0  0  0  0  0
   46.8885   36.7319   13.6275 H   0  0  0  0  0  0  0  0  0  0  0  0
   45.7195   35.9608   14.6970 H   0  0  0  0  0  0  0  0  0  0  0  0
   44.4775   34.0770   14.5725 H   0  0  0  0  0  0  0  0  0  0  0  0
   44.3821   34.5933   16.2579 H   0  0  0  0  0  0  0  0  0  0  0  0
  1  7  2  0  0  0  0
  1  9  1  0  0  0  0
  2  7  1  0  0  0  0
  2 10  2  0  0  0  0
  3  9  2  0  0  0  0
  3 10  1  0  0  0  0
  4  6  2  0  0  0  0
  4 22  1  0  0  0  0
  5  8  2  0  0  0  0
  5 23  1  0  0  0  0
  6  8  1  0  0  0  0
  6 11  1  0  0  0  0
  7 19  1  0  0  0  0
  8 17  1  0  0  0  0
  9 28  1  0  0  0  0
 10 29  1  0  0  0  0
 11 24  1  0  0  0  0
 11 26  2  0  0  0  0
 12 20  1  0  0  0  0
 12 25  1  0  0  0  0
 12 27  2  0  0  0  0
 13 14  1  0  0  0  0
 13 24  1  0  0  0  0
 14 25  1  0  0  0  0
 15 16  1  0  0  0  0
 15 25  1  0  0  0  0
 16 21  1  0  0  0  0
 16 24  1  0  0  0  0
 18 21  1  0  0  0  0
 19 20  1  0  0  0  0
 22 23  2  0  0  0  0
  1 30  1  0  0  0  0
  2 31  1  0  0  0  0
  3 32  1  0  0  0  0
  4 33  1  0  0  0  0
  5 34  1  0  0  0  0
 13 35  1  0  0  0  0
 13 36  1  0  0  0  0
 14 37  1  0  0  0  0
 14 38  1  0  0  0  0
 15 39  1  0  0  0  0
 15 40  1  0  0  0  0
 16 41  1  0  0  0  0
 17 42  1  0  0  0  0
 17 43  1  0  0  0  0
 17 44  1  0  0  0  0
 18 45  1  0  0  0  0
 18 46  1  0  0  0  0
 18 47  1  0  0  0  0
 19 48  1  0  0  0  0
 19 49  1  0  0  0  0
 20 50  1  0  0  0  0
 20 51  1  0  0  0  0
 21 52  1  0  0  0  0
 21 53  1  0  0  0  0
M  END
> <Chemgauss4 Score>
-6.690112113953

> <Number of Confs>
200

> <og_smiles_field>
CCC1CN(C(=O)CCC2=CC(F)=CC(F)=C2)CCN1C(=O)C1=CN=NC=C1C

$$$$

  -OEChem-03232314423D

 58 60  0     1  0  0  0  0  0999 V2000
   39.8822   32.9656   10.3993 C   0  0  0  0  0  0  0  0  0  0  0  0
   39.8575   32.5107   11.6610 C   0  0  0  0  0  0  0  0  0  0  0  0
   47.9511   36.6945   17.1101 C   0  0  0  0  0  0  0  0  0  0  0  0
   40.6951   33.3157   13.8737 C   0  0  0  0  0  0  0  0  0  0  0  0
   48.9828   38.9446   17.2402 C   0  0  0  0  0  0  0  0  0  0  0  0
   45.6295   35.0558   15.6099 C   0  0  0  0  0  0  0  0  0  0  0  0
   44.7929   36.9370   14.9575 C   0  0  0  0  0  0  0  0  0  0  0  0
   43.0548   35.0233   15.2824 C   0  0  0  0  0  0  0  0  0  0  0  0
   44.1868   34.8898   13.4468 C   0  0  0  0  0  0  0  0  0  0  0  0
   49.1790   39.6265   15.8891 C   0  0  0  0  0  0  0  0  0  0  0  0
   49.2392   37.4583   16.9869 C   0  0  2  0  0  0  0  0  0  0  0  0
   45.6543   36.5030   16.1770 C   0  0  0  0  0  0  0  0  0  0  0  0
   43.0991   34.0009   14.1124 C   0  0  0  0  0  0  0  0  0  0  0  0
   49.8433   37.4128   15.5777 C   0  0  1  0  0  0  0  0  0  0  0  0
   44.4173   35.4850   14.8118 C   0  0  0  0  0  0  0  0  0  0  0  0
   49.6828   36.0752   14.8619 C   0  0  0  0  0  0  0  0  0  0  0  0
   39.1385   34.7614   12.5033 C   0  0  0  0  0  0  0  0  0  0  0  0
   38.2603   32.7606   13.6742 C   0  0  0  0  0  0  0  0  0  0  0  0
   49.7703   38.9282   13.6516 C   0  0  0  0  0  0  0  0  0  0  0  0
   39.4853   33.3111   12.9083 C   0  0  0  0  0  0  0  0  0  0  0  0
   49.1583   38.5323   14.9137 N   0  0  2  0  0  0  0  0  0  0  0  0
   46.9767   37.1075   16.2298 N   0  0  0  0  0  0  0  0  0  0  0  0
   41.8611   33.8935   13.3556 N   0  0  0  0  0  0  0  0  0  0  0  0
   47.8568   35.7992   17.9415 O   0  0  0  0  0  0  0  0  0  0  0  0
   40.6312   32.8536   15.0133 O   0  0  0  0  0  0  0  0  0  0  0  0
   40.2757   30.8330   11.9145 Cl  0  0  0  0  0  0  0  0  0  0  0  0
   40.1581   32.3346    9.5626 H   0  0  0  0  0  0  0  0  0  0  0  0
   39.6214   33.9924   10.1610 H   0  0  0  0  0  0  0  0  0  0  0  0
   49.6981   39.3462   17.9670 H   0  0  0  0  0  0  0  0  0  0  0  0
   47.9749   39.1292   17.6291 H   0  0  0  0  0  0  0  0  0  0  0  0
   46.5020   34.7953   14.9986 H   0  0  0  0  0  0  0  0  0  0  0  0
   45.4766   34.2678   16.3529 H   0  0  0  0  0  0  0  0  0  0  0  0
   43.9806   37.6326   15.1865 H   0  0  0  0  0  0  0  0  0  0  0  0
   45.3695   37.3366   14.1146 H   0  0  0  0  0  0  0  0  0  0  0  0
   42.2664   35.7800   15.1909 H   0  0  0  0  0  0  0  0  0  0  0  0
   43.0018   34.5835   16.2825 H   0  0  0  0  0  0  0  0  0  0  0  0
   45.0242   34.3445   13.0023 H   0  0  0  0  0  0  0  0  0  0  0  0
   43.8005   35.6021   12.7079 H   0  0  0  0  0  0  0  0  0  0  0  0
   48.3876   40.3566   15.6908 H   0  0  0  0  0  0  0  0  0  0  0  0
   50.1414   40.1545   15.8873 H   0  0  0  0  0  0  0  0  0  0  0  0
   49.9372   37.0490   17.7268 H   0  0  0  0  0  0  0  0  0  0  0  0
   45.1276   36.6005   17.1339 H   0  0  0  0  0  0  0  0  0  0  0  0
   43.4734   33.0154   14.4150 H   0  0  0  0  0  0  0  0  0  0  0  0
   50.9203   37.6333   15.6561 H   0  0  0  0  0  0  0  0  0  0  0  0
   48.6257   35.8289   14.7688 H   0  0  0  0  0  0  0  0  0  0  0  0
   50.1820   35.2896   15.4278 H   0  0  0  0  0  0  0  0  0  0  0  0
   50.1235   36.1317   13.8672 H   0  0  0  0  0  0  0  0  0  0  0  0
   38.8661   35.3641   13.3777 H   0  0  0  0  0  0  0  0  0  0  0  0
   39.9920   35.2482   12.0158 H   0  0  0  0  0  0  0  0  0  0  0  0
   38.3052   34.8088   11.7933 H   0  0  0  0  0  0  0  0  0  0  0  0
   38.0173   33.3538   14.5626 H   0  0  0  0  0  0  0  0  0  0  0  0
   37.3676   32.7675   13.0370 H   0  0  0  0  0  0  0  0  0  0  0  0
   38.4245   31.7270   14.0011 H   0  0  0  0  0  0  0  0  0  0  0  0
   49.7367   38.0845   12.9466 H   0  0  0  0  0  0  0  0  0  0  0  0
   49.2195   39.7814   13.2288 H   0  0  0  0  0  0  0  0  0  0  0  0
   50.8169   39.2180   13.8267 H   0  0  0  0  0  0  0  0  0  0  0  0
   47.1890   37.8634   15.5925 H   0  0  0  0  0  0  0  0  0  0  0  0
   41.8413   34.2584   12.3970 H   0  0  0  0  0  0  0  0  0  0  0  0
  1  2  2  0  0  0  0
  2 20  1  0  0  0  0
  2 26  1  0  0  0  0
  3 11  1  0  0  0  0
  3 22  1  0  0  0  0
  3 24  2  0  0  0  0
  4 20  1  0  0  0  0
  4 23  1  0  0  0  0
  4 25  2  0  0  0  0
  5 10  1  0  0  0  0
  5 11  1  0  0  0  0
  6 12  1  0  0  0  0
  6 15  1  0  0  0  0
  7 12  1  0  0  0  0
  7 15  1  0  0  0  0
  8 13  1  0  0  0  0
  8 15  1  0  0  0  0
  9 13  1  0  0  0  0
  9 15  1  0  0  0  0
 10 21  1  0  0  0  0
 11 14  1  0  0  0  0
 12 22  1  0  0  0  0
 13 23  1  0  0  0  0
 14 16  1  0  0  0  0
 14 21  1  0  0  0  0
 17 20  1  0  0  0  0
 18 20  1  0  0  0  0
 19 21  1  0  0  0  0
  1 27  1  0  0  0  0
  1 28  1  0  0  0  0
  5 29  1  0  0  0  0
  5 30  1  0  0  0  0
  6 31  1  0  0  0  0
  6 32  1  0  0  0  0
  7 33  1  0  0  0  0
  7 34  1  0  0  0  0
  8 35  1  0  0  0  0
  8 36  1  0  0  0  0
  9 37  1  0  0  0  0
  9 38  1  0  0  0  0
 10 39  1  0  0  0  0
 10 40  1  0  0  0  0
 11 41  1  0  0  0  0
 12 42  1  0  0  0  0
 13 43  1  0  0  0  0
 14 44  1  0  0  0  0
 16 45  1  0  0  0  0
 16 46  1  0  0  0  0
 16 47  1  0  0  0  0
 17 48  1  0  0  0  0
 17 49  1  0  0  0  0
 17 50  1  0  0  0  0
 18 51  1  0  0  0  0
 18 52  1  0  0  0  0
 18 53  1  0  0  0  0
 19 54  1  0  0  0  0
 19 55  1  0  0  0  0
 19 56  1  0  0  0  0
 22 57  1  0  0  0  0
 23 58  1  0  0  0  0
M  END
> <Chemgauss4 Score>
-6.058748245239

> <Number of Confs>
200

> <og_smiles_field>
C=C(Cl)C(C)(C)C(=O)NC1CC2(CC(NC(=O)[C@@H]3CCN(C)[C@@H]3C)C2)C1

$$$$

  -OEChem-03232314423D

 41 43  0     0  0  0  0  0  0999 V2000
   47.0351   37.5913   18.2141 C   0  0  0  0  0  0  0  0  0  0  0  0
   47.6487   36.0299   14.9874 C   0  0  0  0  0  0  0  0  0  0  0  0
   48.2446   38.2360   18.0899 C   0  0  0  0  0  0  0  0  0  0  0  0
   46.7507   36.7538   17.0942 C   0  0  0  0  0  0  0  0  0  0  0  0
   47.7699   36.7921   16.1435 C   0  0  0  0  0  0  0  0  0  0  0  0
   45.6193   35.2978   15.7815 C   0  0  0  0  0  0  0  0  0  0  0  0
   42.3530   33.4471   15.9437 C   0  0  0  0  0  0  0  0  0  0  0  0
   38.9930   32.4867   11.7401 C   0  0  0  0  0  0  0  0  0  0  0  0
   38.4591   33.0080   13.0713 C   0  0  0  0  0  0  0  0  0  0  0  0
   40.2738   31.6778   11.9249 C   0  0  0  0  0  0  0  0  0  0  0  0
   39.5196   33.8025   13.8316 C   0  0  0  0  0  0  0  0  0  0  0  0
   41.3365   32.4711   12.6833 C   0  0  0  0  0  0  0  0  0  0  0  0
   40.7999   32.9823   14.0248 C   0  0  0  0  0  0  0  0  0  0  0  0
   42.2417   34.9991   13.9678 C   0  0  0  0  0  0  0  0  0  0  0  0
   43.4006   34.4019   16.4888 C   0  0  0  0  0  0  0  0  0  0  0  0
   46.5497   35.2705   14.8095 N   0  0  0  0  0  0  0  0  0  0  0  0
   45.6353   35.9934   16.9308 N   0  0  0  0  0  0  0  0  0  0  0  0
   44.4971   34.5044   15.5689 N   0  0  0  0  0  0  0  0  0  0  0  0
   41.8161   33.7967   14.6885 N   0  0  0  0  0  0  0  0  0  0  0  0
   42.0205   32.4440   16.5806 O   0  0  0  0  0  0  0  0  0  0  0  0
   49.0403   37.8379   16.6309 S   0  0  0  0  0  0  0  0  0  0  0  0
   46.3836   37.7152   19.0699 H   0  0  0  0  0  0  0  0  0  0  0  0
   48.3968   36.0067   14.2056 H   0  0  0  0  0  0  0  0  0  0  0  0
   48.6980   38.9238   18.7899 H   0  0  0  0  0  0  0  0  0  0  0  0
   38.2315   31.8658   11.2552 H   0  0  0  0  0  0  0  0  0  0  0  0
   39.1901   33.3328   11.0703 H   0  0  0  0  0  0  0  0  0  0  0  0
   37.5819   33.6404   12.8942 H   0  0  0  0  0  0  0  0  0  0  0  0
   38.1256   32.1634   13.6868 H   0  0  0  0  0  0  0  0  0  0  0  0
   40.0470   30.7553   12.4736 H   0  0  0  0  0  0  0  0  0  0  0  0
   40.6656   31.3793   10.9460 H   0  0  0  0  0  0  0  0  0  0  0  0
   39.7439   34.7233   13.2778 H   0  0  0  0  0  0  0  0  0  0  0  0
   39.1138   34.1025   14.8052 H   0  0  0  0  0  0  0  0  0  0  0  0
   42.2129   31.8322   12.8467 H   0  0  0  0  0  0  0  0  0  0  0  0
   41.6639   33.3160   12.0637 H   0  0  0  0  0  0  0  0  0  0  0  0
   40.6057   32.1450   14.6885 H   0  0  0  0  0  0  0  0  0  0  0  0
   43.0935   34.7544   13.3162 H   0  0  0  0  0  0  0  0  0  0  0  0
   41.4080   35.3740   13.3558 H   0  0  0  0  0  0  0  0  0  0  0  0
   42.5428   35.7721   14.6901 H   0  0  0  0  0  0  0  0  0  0  0  0
   42.9764   35.4019   16.6102 H   0  0  0  0  0  0  0  0  0  0  0  0
   43.7991   34.0298   17.4361 H   0  0  0  0  0  0  0  0  0  0  0  0
   44.4598   33.9656   14.7059 H   0  0  0  0  0  0  0  0  0  0  0  0
  1  3  2  0  0  0  0
  1  4  1  0  0  0  0
  2  5  2  0  0  0  0
  2 16  1  0  0  0  0
  3 21  1  0  0  0  0
  4  5  1  0  0  0  0
  4 17  2  0  0  0  0
  5 21  1  0  0  0  0
  6 16  2  0  0  0  0
  6 17  1  0  0  0  0
  6 18  1  0  0  0  0
  7 15  1  0  0  0  0
  7 19  1  0  0  0  0
  7 20  2  0  0  0  0
  8  9  1  0  0  0  0
  8 10  1  0  0  0  0
  9 11  1  0  0  0  0
 10 12  1  0  0  0  0
 11 13  1  0  0  0  0
 12 13  1  0  0  0  0
 13 19  1  0  0  0  0
 14 19  1  0  0  0  0
 15 18  1  0  0  0  0
  1 22  1  0  0  0  0
  2 23  1  0  0  0  0
  3 24  1  0  0  0  0
  8 25  1  0  0  0  0
  8 26  1  0  0  0  0
  9 27  1  0  0  0  0
  9 28  1  0  0  0  0
 10 29  1  0  0  0  0
 10 30  1  0  0  0  0
 11 31  1  0  0  0  0
 11 32  1  0  0  0  0
 12 33  1  0  0  0  0
 12 34  1  0  0  0  0
 13 35  1  0  0  0  0
 14 36  1  0  0  0  0
 14 37  1  0  0  0  0
 14 38  1  0  0  0  0
 15 39  1  0  0  0  0
 15 40  1  0  0  0  0
 18 41  1  0  0  0  0
M  END
> <Chemgauss4 Score>
-8.260723114014

> <Number of Confs>
200

> <og_smiles_field>
CN(C(=O)CNC1=NC=C2SC=CC2=N1)C1CCCCC1

$$$$

  -OEChem-03232314423D

 48 50  0     1  0  0  0  0  0999 V2000
   44.0632   35.0627   13.7971 C   0  0  0  0  0  0  0  0  0  0  0  0
   43.4367   34.3032   16.0034 C   0  0  0  0  0  0  0  0  0  0  0  0
   45.2851   35.5113   14.2984 C   0  0  0  0  0  0  0  0  0  0  0  0
   44.6587   34.7517   16.5047 C   0  0  0  0  0  0  0  0  0  0  0  0
   43.1390   34.4588   14.6496 C   0  0  0  0  0  0  0  0  0  0  0  0
   45.5829   35.3557   15.6522 C   0  0  0  0  0  0  0  0  0  0  0  0
   40.8726   33.3864   14.8442 C   0  0  0  0  0  0  0  0  0  0  0  0
   47.6047   38.5343   16.8351 C   0  0  0  0  0  0  0  0  0  0  0  0
   39.2424   31.5544   13.7568 C   0  0  0  0  0  0  0  0  0  0  0  0
   39.9301   32.9515   12.3715 C   0  0  0  0  0  0  0  0  0  0  0  0
   37.5927   33.2617   13.1854 C   0  0  2  0  0  0  0  0  0  0  0  0
   39.7061   33.0517   13.9289 C   0  0  0  0  0  0  0  0  0  0  0  0
   38.5370   32.2288   12.5193 C   0  0  0  0  0  0  0  0  0  0  0  0
   37.9769   31.3660   11.4266 C   0  0  0  0  0  0  0  0  0  0  0  0
   47.2201   40.9793   17.0820 C   0  0  0  0  0  0  0  0  0  0  0  0
   47.8675   37.2936   17.6737 C   0  0  0  0  0  0  0  0  0  0  0  0
   46.8004   36.2236   17.5016 C   0  0  0  0  0  0  0  0  0  0  0  0
   37.0675   34.3229   12.2406 C   0  0  0  0  0  0  0  0  0  0  0  0
   41.8993   34.0037   14.1411 N   0  0  0  0  0  0  0  0  0  0  0  0
   47.4726   39.6657   17.6276 N   0  0  0  0  0  0  0  0  0  0  0  0
   40.8308   33.1151   16.0398 O   0  0  0  0  0  0  0  0  0  0  0  0
   47.5248   38.5161   15.6099 O   0  0  0  0  0  0  0  0  0  0  0  0
   38.5012   33.8420   14.1394 O   0  0  0  0  0  0  0  0  0  0  0  0
   46.7752   35.7934   16.1415 O   0  0  0  0  0  0  0  0  0  0  0  0
   36.3907   35.2672   12.9203 F   0  0  0  0  0  0  0  0  0  0  0  0
   38.0826   34.9165   11.5859 F   0  0  0  0  0  0  0  0  0  0  0  0
   36.2377   33.7773   11.3321 F   0  0  0  0  0  0  0  0  0  0  0  0
   43.8417   35.1890   12.7403 H   0  0  0  0  0  0  0  0  0  0  0  0
   42.7241   33.8341   16.6771 H   0  0  0  0  0  0  0  0  0  0  0  0
   46.0010   35.9809   13.6294 H   0  0  0  0  0  0  0  0  0  0  0  0
   44.8848   34.6278   17.5603 H   0  0  0  0  0  0  0  0  0  0  0  0
   40.0206   30.8122   13.5451 H   0  0  0  0  0  0  0  0  0  0  0  0
   38.5784   31.1647   14.5346 H   0  0  0  0  0  0  0  0  0  0  0  0
   39.9372   33.8982   11.8254 H   0  0  0  0  0  0  0  0  0  0  0  0
   40.7723   32.3393   12.0281 H   0  0  0  0  0  0  0  0  0  0  0  0
   36.7736   32.7718   13.7237 H   0  0  0  0  0  0  0  0  0  0  0  0
   37.5189   31.9756   10.6365 H   0  0  0  0  0  0  0  0  0  0  0  0
   37.2065   30.6865   11.8147 H   0  0  0  0  0  0  0  0  0  0  0  0
   38.7623   30.7533   10.9644 H   0  0  0  0  0  0  0  0  0  0  0  0
   48.1769   41.4807   16.8742 H   0  0  0  0  0  0  0  0  0  0  0  0
   46.6458   40.8843   16.1486 H   0  0  0  0  0  0  0  0  0  0  0  0
   46.6450   41.5732   17.8076 H   0  0  0  0  0  0  0  0  0  0  0  0
   47.9044   37.6039   18.7243 H   0  0  0  0  0  0  0  0  0  0  0  0
   48.8496   36.8965   17.3909 H   0  0  0  0  0  0  0  0  0  0  0  0
   47.0380   35.3560   18.1252 H   0  0  0  0  0  0  0  0  0  0  0  0
   45.8066   36.5933   17.7740 H   0  0  0  0  0  0  0  0  0  0  0  0
   41.7558   34.1527   13.1444 H   0  0  0  0  0  0  0  0  0  0  0  0
   47.5571   39.5659   18.6349 H   0  0  0  0  0  0  0  0  0  0  0  0
  1  3  1  0  0  0  0
  1  5  2  0  0  0  0
  2  4  2  0  0  0  0
  2  5  1  0  0  0  0
  3  6  2  0  0  0  0
  4  6  1  0  0  0  0
  5 19  1  0  0  0  0
  6 24  1  0  0  0  0
  7 12  1  0  0  0  0
  7 19  1  0  0  0  0
  7 21  2  0  0  0  0
  8 16  1  0  0  0  0
  8 20  1  0  0  0  0
  8 22  2  0  0  0  0
  9 12  1  0  0  0  0
  9 13  1  0  0  0  0
 10 12  1  0  0  0  0
 10 13  1  0  0  0  0
 11 13  1  0  0  0  0
 11 18  1  0  0  0  0
 11 23  1  0  0  0  0
 12 23  1  0  0  0  0
 13 14  1  0  0  0  0
 15 20  1  0  0  0  0
 16 17  1  0  0  0  0
 17 24  1  0  0  0  0
 18 25  1  0  0  0  0
 18 26  1  0  0  0  0
 18 27  1  0  0  0  0
  1 28  1  0  0  0  0
  2 29  1  0  0  0  0
  3 30  1  0  0  0  0
  4 31  1  0  0  0  0
  9 32  1  0  0  0  0
  9 33  1  0  0  0  0
 10 34  1  0  0  0  0
 10 35  1  0  0  0  0
 11 36  1  0  0  0  0
 14 37  1  0  0  0  0
 14 38  1  0  0  0  0
 14 39  1  0  0  0  0
 15 40  1  0  0  0  0
 15 41  1  0  0  0  0
 15 42  1  0  0  0  0
 16 43  1  0  0  0  0
 16 44  1  0  0  0  0
 17 45  1  0  0  0  0
 17 46  1  0  0  0  0
 19 47  1  0  0  0  0
 20 48  1  0  0  0  0
M  END
> <Chemgauss4 Score>
-5.921962738037

> <Number of Confs>
200

> <og_smiles_field>
CNC(=O)CCOC1=CC=C(NC(=O)C23CC(C)(C2)C(C(F)(F)F)O3)C=C1

$$$$

  -OEChem-03232314423D

 48 51  0     1  0  0  0  0  0999 V2000
   44.3186   33.7856   16.8940 C   0  0  0  0  0  0  0  0  0  0  0  0
   43.4081   33.9905   15.8403 C   0  0  0  0  0  0  0  0  0  0  0  0
   45.3984   34.5788   16.5797 C   0  0  0  0  0  0  0  0  0  0  0  0
   42.0839   33.3730   15.6706 C   0  0  0  0  0  0  0  0  0  0  0  0
   46.6980   34.8152   17.2626 C   0  0  0  0  0  0  0  0  0  0  0  0
   47.7392   35.3813   16.2959 C   0  0  0  0  0  0  0  0  0  0  0  0
   47.1524   36.5466   15.4971 C   0  0  0  0  0  0  0  0  0  0  0  0
   42.4437   32.9394   13.1823 C   0  0  0  0  0  0  0  0  0  0  0  0
   40.2052   33.1204   14.0681 C   0  0  0  0  0  0  0  0  0  0  0  0
   41.7858   32.8486   10.7010 C   0  0  0  0  0  0  0  0  0  0  0  0
   40.1828   34.5767   11.9817 C   0  0  0  0  0  0  0  0  0  0  0  0
   41.4462   32.4486   12.1306 C   0  0  2  0  0  0  0  0  0  0  0  0
   45.9427   36.0978   14.6533 C   0  0  2  0  0  0  0  0  0  0  0  0
   40.1250   33.1393   12.5380 C   0  0  1  0  0  0  0  0  0  0  0  0
   45.2109   37.3212   14.0987 C   0  0  0  0  0  0  0  0  0  0  0  0
   38.8899   32.3996   12.0244 C   0  0  0  0  0  0  0  0  0  0  0  0
   43.8638   34.8456   14.9213 N   0  0  0  0  0  0  0  0  0  0  0  0
   45.0640   35.2132   15.4103 N   0  0  0  0  0  0  0  0  0  0  0  0
   41.6304   33.1777   14.3748 N   0  0  0  0  0  0  0  0  0  0  0  0
   37.7133   33.0113   12.5423 N   0  0  0  0  0  0  0  0  0  0  0  0
   41.4707   33.0628   16.6900 O   0  0  0  0  0  0  0  0  0  0  0  0
   42.2212   35.4440   10.5550 O   0  0  0  0  0  0  0  0  0  0  0  0
   40.2160   34.4716    9.3475 O   0  0  0  0  0  0  0  0  0  0  0  0
   41.1317   34.4934   10.4695 S   0  0  0  0  0  0  0  0  0  0  0  0
   44.2152   33.1456   17.7586 H   0  0  0  0  0  0  0  0  0  0  0  0
   46.5403   35.5207   18.0875 H   0  0  0  0  0  0  0  0  0  0  0  0
   47.0729   33.8829   17.6997 H   0  0  0  0  0  0  0  0  0  0  0  0
   48.6198   35.7146   16.8563 H   0  0  0  0  0  0  0  0  0  0  0  0
   48.0737   34.5973   15.6046 H   0  0  0  0  0  0  0  0  0  0  0  0
   46.8543   37.3405   16.1947 H   0  0  0  0  0  0  0  0  0  0  0  0
   47.9220   36.9711   14.8416 H   0  0  0  0  0  0  0  0  0  0  0  0
   43.2194   32.1957   13.3904 H   0  0  0  0  0  0  0  0  0  0  0  0
   42.9297   33.8825   12.9102 H   0  0  0  0  0  0  0  0  0  0  0  0
   39.6768   33.9518   14.5463 H   0  0  0  0  0  0  0  0  0  0  0  0
   39.8259   32.1828   14.4912 H   0  0  0  0  0  0  0  0  0  0  0  0
   42.8592   32.8472   10.4986 H   0  0  0  0  0  0  0  0  0  0  0  0
   41.2767   32.1949    9.9862 H   0  0  0  0  0  0  0  0  0  0  0  0
   39.1951   34.9909   11.7620 H   0  0  0  0  0  0  0  0  0  0  0  0
   40.7112   35.2614   12.6532 H   0  0  0  0  0  0  0  0  0  0  0  0
   41.3678   31.3565   12.2093 H   0  0  0  0  0  0  0  0  0  0  0  0
   46.3054   35.4888   13.8145 H   0  0  0  0  0  0  0  0  0  0  0  0
   44.8459   37.9339   14.9204 H   0  0  0  0  0  0  0  0  0  0  0  0
   44.3686   36.9998   13.4896 H   0  0  0  0  0  0  0  0  0  0  0  0
   45.8917   37.9099   13.4874 H   0  0  0  0  0  0  0  0  0  0  0  0
   38.9082   32.4593   10.9380 H   0  0  0  0  0  0  0  0  0  0  0  0
   38.9686   31.3686   12.3639 H   0  0  0  0  0  0  0  0  0  0  0  0
   37.1733   32.3418   13.0614 H   0  0  0  0  0  0  0  0  0  0  0  0
   37.9574   33.7714   13.1523 H   0  0  0  0  0  0  0  0  0  0  0  0
  1  2  1  0  0  0  0
  1  3  2  0  0  0  0
  2  4  1  0  0  0  0
  2 17  2  0  0  0  0
  3  5  1  0  0  0  0
  3 18  1  0  0  0  0
  4 19  1  0  0  0  0
  4 21  2  0  0  0  0
  5  6  1  0  0  0  0
  6  7  1  0  0  0  0
  7 13  1  0  0  0  0
  8 12  1  0  0  0  0
  8 19  1  0  0  0  0
  9 14  1  0  0  0  0
  9 19  1  0  0  0  0
 10 12  1  0  0  0  0
 10 24  1  0  0  0  0
 11 14  1  0  0  0  0
 11 24  1  0  0  0  0
 12 14  1  0  0  0  0
 13 15  1  0  0  0  0
 13 18  1  0  0  0  0
 14 16  1  0  0  0  0
 16 20  1  0  0  0  0
 17 18  1  0  0  0  0
 22 24  2  0  0  0  0
 23 24  2  0  0  0  0
  1 25  1  0  0  0  0
  5 26  1  0  0  0  0
  5 27  1  0  0  0  0
  6 28  1  0  0  0  0
  6 29  1  0  0  0  0
  7 30  1  0  0  0  0
  7 31  1  0  0  0  0
  8 32  1  0  0  0  0
  8 33  1  0  0  0  0
  9 34  1  0  0  0  0
  9 35  1  0  0  0  0
 10 36  1  0  0  0  0
 10 37  1  0  0  0  0
 11 38  1  0  0  0  0
 11 39  1  0  0  0  0
 12 40  1  0  0  0  0
 13 41  1  0  0  0  0
 15 42  1  0  0  0  0
 15 43  1  0  0  0  0
 15 44  1  0  0  0  0
 16 45  1  0  0  0  0
 16 46  1  0  0  0  0
 20 47  1  0  0  0  0
 20 48  1  0  0  0  0
M  END
> <Chemgauss4 Score>
-6.861024856567

> <Number of Confs>
69

> <og_smiles_field>
CC1CCCC2=CC(C(=O)N3C[C@@H]4CS(=O)(=O)C[C@]4(CN)C3)=NN21

$$$$

  -OEChem-03232314423D

 34 36  0     0  0  0  0  0  0999 V2000
   45.1757   35.8637   15.6414 C   0  0  0  0  0  0  0  0  0  0  0  0
   44.8571   33.9641   17.0999 C   0  0  0  0  0  0  0  0  0  0  0  0
   41.4663   31.7004   12.4453 C   0  0  0  0  0  0  0  0  0  0  0  0
   44.0300   35.5090   14.9292 C   0  0  0  0  0  0  0  0  0  0  0  0
   43.2978   34.3820   15.3024 C   0  0  0  0  0  0  0  0  0  0  0  0
   45.5893   35.0911   16.7268 C   0  0  0  0  0  0  0  0  0  0  0  0
   43.7113   33.6095   16.3877 C   0  0  0  0  0  0  0  0  0  0  0  0
   40.3398   32.3526   12.8809 C   0  0  0  0  0  0  0  0  0  0  0  0
   41.0883   31.1433   11.2113 C   0  0  0  0  0  0  0  0  0  0  0  0
   37.8822   33.4344   13.2323 C   0  0  0  0  0  0  0  0  0  0  0  0
   38.1079   32.7239   12.1125 C   0  0  0  0  0  0  0  0  0  0  0  0
   39.9988   33.1304   14.0452 C   0  0  0  0  0  0  0  0  0  0  0  0
   41.0250   33.3505   15.0930 C   0  0  0  0  0  0  0  0  0  0  0  0
   41.9208   30.3337   10.3046 C   0  0  0  0  0  0  0  0  0  0  0  0
   43.6108   36.3554   13.7714 C   0  0  0  0  0  0  0  0  0  0  0  0
   39.8238   31.4132   10.8799 N   0  0  0  0  0  0  0  0  0  0  0  0
   38.8207   33.6560   14.2270 N   0  0  0  0  0  0  0  0  0  0  0  0
   39.3642   32.1596   11.9130 N   0  0  0  0  0  0  0  0  0  0  0  0
   42.1324   34.0077   14.5901 N   0  0  0  0  0  0  0  0  0  0  0  0
   40.8086   32.9565   16.2298 O   0  0  0  0  0  0  0  0  0  0  0  0
   46.6895   35.4313   17.4107 F   0  0  0  0  0  0  0  0  0  0  0  0
   43.0161   32.5237   16.7563 F   0  0  0  0  0  0  0  0  0  0  0  0
   44.4380   37.4171   13.5450 F   0  0  0  0  0  0  0  0  0  0  0  0
   43.5676   35.6760   12.5885 F   0  0  0  0  0  0  0  0  0  0  0  0
   42.3658   36.8870   13.9368 F   0  0  0  0  0  0  0  0  0  0  0  0
   45.7534   36.7398   15.3591 H   0  0  0  0  0  0  0  0  0  0  0  0
   45.1793   33.3627   17.9447 H   0  0  0  0  0  0  0  0  0  0  0  0
   42.4231   31.6348   12.9427 H   0  0  0  0  0  0  0  0  0  0  0  0
   36.9085   33.8807   13.4037 H   0  0  0  0  0  0  0  0  0  0  0  0
   37.3565   32.5652   11.3495 H   0  0  0  0  0  0  0  0  0  0  0  0
   41.8386   29.2587   10.5390 H   0  0  0  0  0  0  0  0  0  0  0  0
   41.6344   30.4665    9.2463 H   0  0  0  0  0  0  0  0  0  0  0  0
   42.9893   30.6068   10.3651 H   0  0  0  0  0  0  0  0  0  0  0  0
   42.1318   34.2599   13.6038 H   0  0  0  0  0  0  0  0  0  0  0  0
  1  4  2  0  0  0  0
  1  6  1  0  0  0  0
  2  6  2  0  0  0  0
  2  7  1  0  0  0  0
  3  8  2  0  0  0  0
  3  9  1  0  0  0  0
  4  5  1  0  0  0  0
  4 15  1  0  0  0  0
  5  7  2  0  0  0  0
  5 19  1  0  0  0  0
  6 21  1  0  0  0  0
  7 22  1  0  0  0  0
  8 12  1  0  0  0  0
  8 18  1  0  0  0  0
  9 14  1  0  0  0  0
  9 16  2  0  0  0  0
 10 11  2  0  0  0  0
 10 17  1  0  0  0  0
 11 18  1  0  0  0  0
 12 13  1  0  0  0  0
 12 17  2  0  0  0  0
 13 19  1  0  0  0  0
 13 20  2  0  0  0  0
 15 23  1  0  0  0  0
 15 24  1  0  0  0  0
 15 25  1  0  0  0  0
 16 18  1  0  0  0  0
  1 26  1  0  0  0  0
  2 27  1  0  0  0  0
  3 28  1  0  0  0  0
 10 29  1  0  0  0  0
 11 30  1  0  0  0  0
 14 31  1  0  0  0  0
 14 32  1  0  0  0  0
 14 33  1  0  0  0  0
 19 34  1  0  0  0  0
M  END
> <Chemgauss4 Score>
-6.424094676971

> <Number of Confs>
14

> <og_smiles_field>
CC1=NN2C=CN=C(C(=O)NC3=C(F)C=C(F)C=C3C(F)(F)F)C2=C1

$$$$

  -OEChem-03232314423D

 54 57  0     1  0  0  0  0  0999 V2000
   47.1132   40.8692   17.4505 C   0  0  0  0  0  0  0  0  0  0  0  0
   47.2282   42.0896   16.9303 C   0  0  0  0  0  0  0  0  0  0  0  0
   47.9539   39.8101   16.8579 C   0  0  0  0  0  0  0  0  0  0  0  0
   48.1650   42.3288   15.8134 C   0  0  0  0  0  0  0  0  0  0  0  0
   40.6745   33.8041   15.3248 C   0  0  0  0  0  0  0  0  0  0  0  0
   46.6225   36.2753   17.2943 C   0  0  0  0  0  0  0  0  0  0  0  0
   40.3130   32.0074   12.8812 C   0  0  0  0  0  0  0  0  0  0  0  0
   39.3915   34.0407   11.6700 C   0  0  0  0  0  0  0  0  0  0  0  0
   38.4934   33.4438   14.0192 C   0  0  0  0  0  0  0  0  0  0  0  0
   45.2497   34.1395   16.9747 C   0  0  0  0  0  0  0  0  0  0  0  0
   44.7697   35.7090   15.5816 C   0  0  0  0  0  0  0  0  0  0  0  0
   41.7120   32.1540   12.2923 C   0  0  0  0  0  0  0  0  0  0  0  0
   40.7139   34.3685   10.9865 C   0  0  0  0  0  0  0  0  0  0  0  0
   39.7738   34.2052   14.2372 C   0  0  2  0  0  0  0  0  0  0  0  0
   39.6018   33.3410   12.9975 C   0  0  0  0  0  0  0  0  0  0  0  0
   44.1222   34.3526   15.9403 C   0  0  0  0  0  0  0  0  0  0  0  0
   47.8338   38.4375   17.4335 C   0  0  0  0  0  0  0  0  0  0  0  0
   46.7584   37.6542   16.7062 C   0  0  0  0  0  0  0  0  0  0  0  0
   42.7320   34.4699   16.5520 C   0  0  0  0  0  0  0  0  0  0  0  0
   48.7838   39.9849   15.8798 N   0  0  0  0  0  0  0  0  0  0  0  0
   48.8782   41.2384   15.3723 N   0  0  0  0  0  0  0  0  0  0  0  0
   45.6706   35.4973   16.6954 N   0  0  0  0  0  0  0  0  0  0  0  0
   41.7287   34.6732   15.5316 N   0  0  0  0  0  0  0  0  0  0  0  0
   48.2725   43.4546   15.3321 O   0  0  0  0  0  0  0  0  0  0  0  0
   40.4454   32.7759   15.9508 O   0  0  0  0  0  0  0  0  0  0  0  0
   47.3216   35.9085   18.2376 O   0  0  0  0  0  0  0  0  0  0  0  0
   44.0781   33.3869   14.8678 O   0  0  0  0  0  0  0  0  0  0  0  0
   41.6635   32.8615   10.6169 S   0  0  0  0  0  0  0  0  0  0  0  0
   46.4409   40.6471   18.2682 H   0  0  0  0  0  0  0  0  0  0  0  0
   46.6483   42.9242   17.3057 H   0  0  0  0  0  0  0  0  0  0  0  0
   39.7101   31.3309   12.2614 H   0  0  0  0  0  0  0  0  0  0  0  0
   40.3948   31.5221   13.8615 H   0  0  0  0  0  0  0  0  0  0  0  0
   38.8353   34.9756   11.8150 H   0  0  0  0  0  0  0  0  0  0  0  0
   38.7686   33.4124   11.0204 H   0  0  0  0  0  0  0  0  0  0  0  0
   38.2886   32.5854   14.6490 H   0  0  0  0  0  0  0  0  0  0  0  0
   37.6068   34.0149   13.7676 H   0  0  0  0  0  0  0  0  0  0  0  0
   44.9337   33.9847   18.0099 H   0  0  0  0  0  0  0  0  0  0  0  0
   46.0069   33.3986   16.7012 H   0  0  0  0  0  0  0  0  0  0  0  0
   45.2870   35.7417   14.6181 H   0  0  0  0  0  0  0  0  0  0  0  0
   44.1302   36.5889   15.6922 H   0  0  0  0  0  0  0  0  0  0  0  0
   42.3399   32.7943   12.9200 H   0  0  0  0  0  0  0  0  0  0  0  0
   42.1945   31.1733   12.2335 H   0  0  0  0  0  0  0  0  0  0  0  0
   40.5260   34.8926   10.0442 H   0  0  0  0  0  0  0  0  0  0  0  0
   41.3282   35.0228   11.6141 H   0  0  0  0  0  0  0  0  0  0  0  0
   39.7184   35.2807   14.0971 H   0  0  0  0  0  0  0  0  0  0  0  0
   47.5476   38.5561   18.4837 H   0  0  0  0  0  0  0  0  0  0  0  0
   48.8122   37.9495   17.3864 H   0  0  0  0  0  0  0  0  0  0  0  0
   46.9638   37.5426   15.6402 H   0  0  0  0  0  0  0  0  0  0  0  0
   45.7877   38.1391   16.8287 H   0  0  0  0  0  0  0  0  0  0  0  0
   42.5025   33.5453   17.1020 H   0  0  0  0  0  0  0  0  0  0  0  0
   42.7160   35.3230   17.2463 H   0  0  0  0  0  0  0  0  0  0  0  0
   49.5392   41.3333   14.6079 H   0  0  0  0  0  0  0  0  0  0  0  0
   41.8021   35.4941   14.9382 H   0  0  0  0  0  0  0  0  0  0  0  0
   43.9489   32.5320   15.2957 H   0  0  0  0  0  0  0  0  0  0  0  0
  1  2  2  0  0  0  0
  1  3  1  0  0  0  0
  2  4  1  0  0  0  0
  3 17  1  0  0  0  0
  3 20  2  0  0  0  0
  4 21  1  0  0  0  0
  4 24  2  0  0  0  0
  5 14  1  0  0  0  0
  5 23  1  0  0  0  0
  5 25  2  0  0  0  0
  6 18  1  0  0  0  0
  6 22  1  0  0  0  0
  6 26  2  0  0  0  0
  7 12  1  0  0  0  0
  7 15  1  0  0  0  0
  8 13  1  0  0  0  0
  8 15  1  0  0  0  0
  9 14  1  0  0  0  0
  9 15  1  0  0  0  0
 10 16  1  0  0  0  0
 10 22  1  0  0  0  0
 11 16  1  0  0  0  0
 11 22  1  0  0  0  0
 12 28  1  0  0  0  0
 13 28  1  0  0  0  0
 14 15  1  0  0  0  0
 16 19  1  0  0  0  0
 16 27  1  0  0  0  0
 17 18  1  0  0  0  0
 19 23  1  0  0  0  0
 20 21  1  0  0  0  0
  1 29  1  0  0  0  0
  2 30  1  0  0  0  0
  7 31  1  0  0  0  0
  7 32  1  0  0  0  0
  8 33  1  0  0  0  0
  8 34  1  0  0  0  0
  9 35  1  0  0  0  0
  9 36  1  0  0  0  0
 10 37  1  0  0  0  0
 10 38  1  0  0  0  0
 11 39  1  0  0  0  0
 11 40  1  0  0  0  0
 12 41  1  0  0  0  0
 12 42  1  0  0  0  0
 13 43  1  0  0  0  0
 13 44  1  0  0  0  0
 14 45  1  0  0  0  0
 17 46  1  0  0  0  0
 17 47  1  0  0  0  0
 18 48  1  0  0  0  0
 18 49  1  0  0  0  0
 19 50  1  0  0  0  0
 19 51  1  0  0  0  0
 21 52  1  0  0  0  0
 23 53  1  0  0  0  0
 27 54  1  0  0  0  0
M  END
> <Chemgauss4 Score>
-7.460227966309

> <Number of Confs>
200

> <og_smiles_field>
O=C(NCC1(O)CN(C(=O)CCC2=NNC(=O)C=C2)C1)C1CC12CCSCC2

$$$$

  -OEChem-03232314423D

 50 53  0     1  0  0  0  0  0999 V2000
   49.3278   39.4992   16.5798 C   0  0  0  0  0  0  0  0  0  0  0  0
   49.8026   39.1703   15.2959 C   0  0  0  0  0  0  0  0  0  0  0  0
   48.4750   38.4725   16.9039 C   0  0  0  0  0  0  0  0  0  0  0  0
   44.6308   34.9659   14.7646 C   0  0  0  0  0  0  0  0  0  0  0  0
   48.5513   35.1547   16.3622 C   0  0  0  0  0  0  0  0  0  0  0  0
   43.6189   33.8210   16.8268 C   0  0  0  0  0  0  0  0  0  0  0  0
   42.4392   32.6975   14.7350 C   0  0  0  0  0  0  0  0  0  0  0  0
   41.1179   33.8829   15.9460 C   0  0  0  0  0  0  0  0  0  0  0  0
   46.1856   36.3144   16.3421 C   0  0  0  0  0  0  0  0  0  0  0  0
   46.9749   35.9195   14.3954 C   0  0  0  0  0  0  0  0  0  0  0  0
   43.5623   34.8951   15.7669 C   0  0  2  0  0  0  0  0  0  0  0  0
   40.9984   33.2171   14.5619 C   0  0  0  0  0  0  0  0  0  0  0  0
   47.6373   36.2730   15.7648 C   0  0  0  0  0  0  0  0  0  0  0  0
   42.5823   33.7604   15.7562 C   0  0  0  0  0  0  0  0  0  0  0  0
   38.4325   33.6666   13.5567 C   0  0  0  0  0  0  0  0  0  0  0  0
   39.5102   34.6898   11.5316 C   0  0  0  0  0  0  0  0  0  0  0  0
   39.9806   32.2946   12.1230 C   0  0  0  0  0  0  0  0  0  0  0  0
   39.6782   33.6881   12.6720 C   0  0  0  0  0  0  0  0  0  0  0  0
   49.2938   38.0242   14.8360 N   0  0  0  0  0  0  0  0  0  0  0  0
   48.4905   37.6239   15.8362 N   0  0  0  0  0  0  0  0  0  0  0  0
   45.7676   35.6281   15.1396 N   0  0  0  0  0  0  0  0  0  0  0  0
   44.4613   34.4357   13.6711 O   0  0  0  0  0  0  0  0  0  0  0  0
   48.4610   34.7051   17.4949 O   0  0  0  0  0  0  0  0  0  0  0  0
   49.4678   34.7475   15.4503 O   0  0  0  0  0  0  0  0  0  0  0  0
   40.7784   34.1129   13.4539 O   0  0  0  0  0  0  0  0  0  0  0  0
   49.5686   40.3602   17.1856 H   0  0  0  0  0  0  0  0  0  0  0  0
   50.4971   39.7189   14.6760 H   0  0  0  0  0  0  0  0  0  0  0  0
   47.8754   38.2817   17.7833 H   0  0  0  0  0  0  0  0  0  0  0  0
   44.4330   33.1051   16.7943 H   0  0  0  0  0  0  0  0  0  0  0  0
   43.3076   34.0904   17.8303 H   0  0  0  0  0  0  0  0  0  0  0  0
   42.5149   31.6628   15.0837 H   0  0  0  0  0  0  0  0  0  0  0  0
   43.0769   32.8215   13.8517 H   0  0  0  0  0  0  0  0  0  0  0  0
   40.7502   34.9148   15.9909 H   0  0  0  0  0  0  0  0  0  0  0  0
   40.6765   33.3130   16.7694 H   0  0  0  0  0  0  0  0  0  0  0  0
   46.0372   35.7342   17.2573 H   0  0  0  0  0  0  0  0  0  0  0  0
   45.7230   37.3009   16.4489 H   0  0  0  0  0  0  0  0  0  0  0  0
   46.8424   36.7390   13.6816 H   0  0  0  0  0  0  0  0  0  0  0  0
   47.3928   35.0479   13.8833 H   0  0  0  0  0  0  0  0  0  0  0  0
   43.1762   35.8601   16.0938 H   0  0  0  0  0  0  0  0  0  0  0  0
   40.2549   32.4065   14.5414 H   0  0  0  0  0  0  0  0  0  0  0  0
   38.5491   32.9488   14.3765 H   0  0  0  0  0  0  0  0  0  0  0  0
   38.2247   34.6527   13.9848 H   0  0  0  0  0  0  0  0  0  0  0  0
   37.5535   33.3446   12.9866 H   0  0  0  0  0  0  0  0  0  0  0  0
   40.4016   34.7085   10.8943 H   0  0  0  0  0  0  0  0  0  0  0  0
   39.3874   35.7071   11.9205 H   0  0  0  0  0  0  0  0  0  0  0  0
   38.6430   34.4501   10.9078 H   0  0  0  0  0  0  0  0  0  0  0  0
   40.8741   32.3097   11.4884 H   0  0  0  0  0  0  0  0  0  0  0  0
   40.1407   31.5699   12.9280 H   0  0  0  0  0  0  0  0  0  0  0  0
   39.1589   31.9377   11.4916 H   0  0  0  0  0  0  0  0  0  0  0  0
   50.0533   34.0461   15.8073 H   0  0  0  0  0  0  0  0  0  0  0  0
  1  2  1  0  0  0  0
  1  3  2  0  0  0  0
  2 19  2  0  0  0  0
  3 20  1  0  0  0  0
  4 11  1  0  0  0  0
  4 21  1  0  0  0  0
  4 22  2  0  0  0  0
  5 13  1  0  0  0  0
  5 23  2  0  0  0  0
  5 24  1  0  0  0  0
  6 11  1  0  0  0  0
  6 14  1  0  0  0  0
  7 12  1  0  0  0  0
  7 14  1  0  0  0  0
  8 12  1  0  0  0  0
  8 14  1  0  0  0  0
  9 13  1  0  0  0  0
  9 21  1  0  0  0  0
 10 13  1  0  0  0  0
 10 21  1  0  0  0  0
 11 14  1  0  0  0  0
 12 25  1  0  0  0  0
 13 20  1  0  0  0  0
 15 18  1  0  0  0  0
 16 18  1  0  0  0  0
 17 18  1  0  0  0  0
 18 25  1  0  0  0  0
 19 20  1  0  0  0  0
  1 26  1  0  0  0  0
  2 27  1  0  0  0  0
  3 28  1  0  0  0  0
  6 29  1  0  0  0  0
  6 30  1  0  0  0  0
  7 31  1  0  0  0  0
  7 32  1  0  0  0  0
  8 33  1  0  0  0  0
  8 34  1  0  0  0  0
  9 35  1  0  0  0  0
  9 36  1  0  0  0  0
 10 37  1  0  0  0  0
 10 38  1  0  0  0  0
 11 39  1  0  0  0  0
 12 40  1  0  0  0  0
 15 41  1  0  0  0  0
 15 42  1  0  0  0  0
 15 43  1  0  0  0  0
 16 44  1  0  0  0  0
 16 45  1  0  0  0  0
 16 46  1  0  0  0  0
 17 47  1  0  0  0  0
 17 48  1  0  0  0  0
 17 49  1  0  0  0  0
 24 50  1  0  0  0  0
M  END
> <Chemgauss4 Score>
-6.669417858124

> <Number of Confs>
200

> <og_smiles_field>
CC(C)(C)OC1CC2(C1)CC2C(=O)N1CC(C(=O)O)(N2C=CC=N2)C1

$$$$

  -OEChem-03232314423D

 43 45  0     0  0  0  0  0  0999 V2000
   44.8523   34.9873   15.2169 C   0  0  0  0  0  0  0  0  0  0  0  0
   47.6050   38.0485   18.1063 C   0  0  0  0  0  0  0  0  0  0  0  0
   48.3406   37.7857   15.7020 C   0  0  0  0  0  0  0  0  0  0  0  0
   46.3005   37.3160   17.7880 C   0  0  0  0  0  0  0  0  0  0  0  0
   47.0368   37.0525   15.3824 C   0  0  0  0  0  0  0  0  0  0  0  0
   40.7293   33.9311   14.9201 C   0  0  0  0  0  0  0  0  0  0  0  0
   42.4046   35.8332   14.6920 C   0  0  0  0  0  0  0  0  0  0  0  0
   42.9453   34.1143   13.5985 C   0  0  0  0  0  0  0  0  0  0  0  0
   41.6401   33.1381   15.8654 C   0  0  0  0  0  0  0  0  0  0  0  0
   41.5701   34.7572   13.9400 C   0  0  0  0  0  0  0  0  0  0  0  0
   48.2135   38.7524   16.8864 C   0  0  0  0  0  0  0  0  0  0  0  0
   43.3655   34.6397   15.0232 C   0  0  0  0  0  0  0  0  0  0  0  0
   46.4175   36.3377   16.6011 C   0  0  0  0  0  0  0  0  0  0  0  0
   47.4227   40.0081   16.5072 C   0  0  0  0  0  0  0  0  0  0  0  0
   47.2498   35.1051   16.9909 C   0  0  0  0  0  0  0  0  0  0  0  0
   45.0835   35.8746   16.2436 N   0  0  0  0  0  0  0  0  0  0  0  0
   45.6923   34.4779   14.4844 O   0  0  0  0  0  0  0  0  0  0  0  0
   42.8667   33.8297   16.1280 O   0  0  0  0  0  0  0  0  0  0  0  0
   47.4380   38.7766   18.9179 H   0  0  0  0  0  0  0  0  0  0  0  0
   48.3299   37.3209   18.5089 H   0  0  0  0  0  0  0  0  0  0  0  0
   49.1253   37.0406   15.9161 H   0  0  0  0  0  0  0  0  0  0  0  0
   48.6848   38.3318   14.8069 H   0  0  0  0  0  0  0  0  0  0  0  0
   45.9842   36.7643   18.6873 H   0  0  0  0  0  0  0  0  0  0  0  0
   45.5070   38.0543   17.5958 H   0  0  0  0  0  0  0  0  0  0  0  0
   46.3160   37.7631   14.9497 H   0  0  0  0  0  0  0  0  0  0  0  0
   47.2395   36.3139   14.5907 H   0  0  0  0  0  0  0  0  0  0  0  0
   40.0683   33.2411   14.3844 H   0  0  0  0  0  0  0  0  0  0  0  0
   40.0848   34.6029   15.4995 H   0  0  0  0  0  0  0  0  0  0  0  0
   42.8450   36.6044   14.0516 H   0  0  0  0  0  0  0  0  0  0  0  0
   41.9102   36.3169   15.5373 H   0  0  0  0  0  0  0  0  0  0  0  0
   42.9450   33.0344   13.4372 H   0  0  0  0  0  0  0  0  0  0  0  0
   43.4791   34.5896   12.7685 H   0  0  0  0  0  0  0  0  0  0  0  0
   41.1349   32.9411   16.8159 H   0  0  0  0  0  0  0  0  0  0  0  0
   41.8960   32.1688   15.4231 H   0  0  0  0  0  0  0  0  0  0  0  0
   40.9945   35.1353   13.0903 H   0  0  0  0  0  0  0  0  0  0  0  0
   49.2380   39.0796   17.1641 H   0  0  0  0  0  0  0  0  0  0  0  0
   46.4073   39.7337   16.2266 H   0  0  0  0  0  0  0  0  0  0  0  0
   47.9029   40.5065   15.6669 H   0  0  0  0  0  0  0  0  0  0  0  0
   47.3868   40.6911   17.3543 H   0  0  0  0  0  0  0  0  0  0  0  0
   47.3176   34.4328   16.1409 H   0  0  0  0  0  0  0  0  0  0  0  0
   46.7705   34.5947   17.8208 H   0  0  0  0  0  0  0  0  0  0  0  0
   48.2460   35.4215   17.2848 H   0  0  0  0  0  0  0  0  0  0  0  0
   44.2936   36.2196   16.7722 H   0  0  0  0  0  0  0  0  0  0  0  0
  1 12  1  0  0  0  0
  1 16  1  0  0  0  0
  1 17  2  0  0  0  0
  2  4  1  0  0  0  0
  2 11  1  0  0  0  0
  3  5  1  0  0  0  0
  3 11  1  0  0  0  0
  4 13  1  0  0  0  0
  5 13  1  0  0  0  0
  6  9  1  0  0  0  0
  6 10  1  0  0  0  0
  7 10  1  0  0  0  0
  7 12  1  0  0  0  0
  8 10  1  0  0  0  0
  8 12  1  0  0  0  0
  9 18  1  0  0  0  0
 11 14  1  0  0  0  0
 12 18  1  0  0  0  0
 13 15  1  0  0  0  0
 13 16  1  0  0  0  0
  2 19  1  0  0  0  0
  2 20  1  0  0  0  0
  3 21  1  0  0  0  0
  3 22  1  0  0  0  0
  4 23  1  0  0  0  0
  4 24  1  0  0  0  0
  5 25  1  0  0  0  0
  5 26  1  0  0  0  0
  6 27  1  0  0  0  0
  6 28  1  0  0  0  0
  7 29  1  0  0  0  0
  7 30  1  0  0  0  0
  8 31  1  0  0  0  0
  8 32  1  0  0  0  0
  9 33  1  0  0  0  0
  9 34  1  0  0  0  0
 10 35  1  0  0  0  0
 11 36  1  0  0  0  0
 14 37  1  0  0  0  0
 14 38  1  0  0  0  0
 14 39  1  0  0  0  0
 15 40  1  0  0  0  0
 15 41  1  0  0  0  0
 15 42  1  0  0  0  0
 16 43  1  0  0  0  0
M  END
> <Chemgauss4 Score>
-5.562597751617

> <Number of Confs>
25

> <og_smiles_field>
CC1CCC(C)(NC(=O)C23CC(CCO2)C3)CC1

$$$$

  -OEChem-03232314423D

 41 44  0     0  0  0  0  0  0999 V2000
   44.5223   37.5413   13.7010 C   0  0  0  0  0  0  0  0  0  0  0  0
   45.4287   37.0188   14.6175 C   0  0  0  0  0  0  0  0  0  0  0  0
   40.2484   33.5622   14.7315 C   0  0  0  0  0  0  0  0  0  0  0  0
   42.9141   35.8524   14.3448 C   0  0  0  0  0  0  0  0  0  0  0  0
   39.5433   33.5582   13.5309 C   0  0  0  0  0  0  0  0  0  0  0  0
   41.6159   33.2965   14.7203 C   0  0  0  0  0  0  0  0  0  0  0  0
   43.2649   36.9621   13.5694 C   0  0  0  0  0  0  0  0  0  0  0  0
   42.1595   33.0449   13.4673 C   0  0  0  0  0  0  0  0  0  0  0  0
   43.8251   35.2872   15.2484 C   0  0  0  0  0  0  0  0  0  0  0  0
   45.0851   35.9011   15.3863 C   0  0  0  0  0  0  0  0  0  0  0  0
   41.3923   33.0581   12.3128 C   0  0  0  0  0  0  0  0  0  0  0  0
   42.4255   33.2859   15.9568 C   0  0  0  0  0  0  0  0  0  0  0  0
   44.3688   34.0400   17.2612 C   0  0  0  0  0  0  0  0  0  0  0  0
   45.8115   34.1934   16.8263 C   0  0  0  0  0  0  0  0  0  0  0  0
   42.7774   37.4705   11.1495 C   0  0  0  0  0  0  0  0  0  0  0  0
   41.8904   38.9842   12.9598 C   0  0  0  0  0  0  0  0  0  0  0  0
   42.2817   37.5373   12.6060 C   0  0  0  0  0  0  0  0  0  0  0  0
   40.0622   33.3142   12.3032 N   0  0  0  0  0  0  0  0  0  0  0  0
   42.1801   32.7793   11.2320 N   0  0  0  0  0  0  0  0  0  0  0  0
   43.4210   32.5910   11.6726 N   0  0  0  0  0  0  0  0  0  0  0  0
   43.4078   32.7499   13.0085 N   0  0  0  0  0  0  0  0  0  0  0  0
   43.5017   34.1752   16.0911 N   0  0  0  0  0  0  0  0  0  0  0  0
   42.1638   32.3940   16.7665 O   0  0  0  0  0  0  0  0  0  0  0  0
   46.0465   35.4902   16.2784 O   0  0  0  0  0  0  0  0  0  0  0  0
   44.8026   38.4015   13.0988 H   0  0  0  0  0  0  0  0  0  0  0  0
   46.4069   37.4809   14.7245 H   0  0  0  0  0  0  0  0  0  0  0  0
   39.7300   33.7719   15.6627 H   0  0  0  0  0  0  0  0  0  0  0  0
   41.9047   35.4771   14.2302 H   0  0  0  0  0  0  0  0  0  0  0  0
   38.4764   33.7663   13.5325 H   0  0  0  0  0  0  0  0  0  0  0  0
   44.2454   33.0701   17.7418 H   0  0  0  0  0  0  0  0  0  0  0  0
   44.0849   34.8241   17.9676 H   0  0  0  0  0  0  0  0  0  0  0  0
   46.4726   34.0835   17.6950 H   0  0  0  0  0  0  0  0  0  0  0  0
   46.1077   33.4235   16.0989 H   0  0  0  0  0  0  0  0  0  0  0  0
   43.7123   38.0256   11.0156 H   0  0  0  0  0  0  0  0  0  0  0  0
   42.0400   37.8898   10.4563 H   0  0  0  0  0  0  0  0  0  0  0  0
   42.9612   36.4312   10.8550 H   0  0  0  0  0  0  0  0  0  0  0  0
   42.7739   39.6324   12.9521 H   0  0  0  0  0  0  0  0  0  0  0  0
   41.4394   39.0442   13.9563 H   0  0  0  0  0  0  0  0  0  0  0  0
   41.1694   39.3937   12.2438 H   0  0  0  0  0  0  0  0  0  0  0  0
   41.3430   36.9526   12.6352 H   0  0  0  0  0  0  0  0  0  0  0  0
   44.2721   32.6444   13.5264 H   0  0  0  0  0  0  0  0  0  0  0  0
  1  2  1  0  0  0  0
  1  7  2  0  0  0  0
  2 10  2  0  0  0  0
  3  5  1  0  0  0  0
  3  6  2  0  0  0  0
  4  7  1  0  0  0  0
  4  9  2  0  0  0  0
  5 18  2  0  0  0  0
  6  8  1  0  0  0  0
  6 12  1  0  0  0  0
  7 17  1  0  0  0  0
  8 11  2  0  0  0  0
  8 21  1  0  0  0  0
  9 10  1  0  0  0  0
  9 22  1  0  0  0  0
 10 24  1  0  0  0  0
 11 18  1  0  0  0  0
 11 19  1  0  0  0  0
 12 22  1  0  0  0  0
 12 23  2  0  0  0  0
 13 14  1  0  0  0  0
 13 22  1  0  0  0  0
 14 24  1  0  0  0  0
 15 17  1  0  0  0  0
 16 17  1  0  0  0  0
 19 20  2  0  0  0  0
 20 21  1  0  0  0  0
  1 25  1  0  0  0  0
  2 26  1  0  0  0  0
  3 27  1  0  0  0  0
  4 28  1  0  0  0  0
  5 29  1  0  0  0  0
 13 30  1  0  0  0  0
 13 31  1  0  0  0  0
 14 32  1  0  0  0  0
 14 33  1  0  0  0  0
 15 34  1  0  0  0  0
 15 35  1  0  0  0  0
 15 36  1  0  0  0  0
 16 37  1  0  0  0  0
 16 38  1  0  0  0  0
 16 39  1  0  0  0  0
 17 40  1  0  0  0  0
 21 41  1  0  0  0  0
M  END
> <Chemgauss4 Score>
-8.291707038879

> <Number of Confs>
38

> <og_smiles_field>
CC(C)C1=CC=C2OCCN(C(=O)C3=CC=NC4=C3NN=N4)C2=C1

$$$$

  -OEChem-03232314423D

 55 58  0     1  0  0  0  0  0999 V2000
   39.9590   32.5362   13.4094 C   0  0  0  0  0  0  0  0  0  0  0  0
   40.4141   33.4285   12.4639 C   0  0  0  0  0  0  0  0  0  0  0  0
   41.0891   33.6816   15.0344 C   0  0  0  0  0  0  0  0  0  0  0  0
   41.5448   34.5735   14.0888 C   0  0  0  0  0  0  0  0  0  0  0  0
   48.4535   37.9127   15.5266 C   0  0  0  0  0  0  0  0  0  0  0  0
   43.7955   35.5892   13.8424 C   0  0  0  0  0  0  0  0  0  0  0  0
   46.6751   35.4589   18.1868 C   0  0  0  0  0  0  0  0  0  0  0  0
   47.4831   36.6964   18.5868 C   0  0  0  0  0  0  0  0  0  0  0  0
   46.7824   35.1497   16.6887 C   0  0  0  0  0  0  0  0  0  0  0  0
   50.3409   39.6720   15.0323 C   0  0  0  0  0  0  0  0  0  0  0  0
   50.0814   39.2301   17.1141 C   0  0  0  0  0  0  0  0  0  0  0  0
   47.1579   37.8954   17.6962 C   0  0  0  0  0  0  0  0  0  0  0  0
   46.2528   36.1420   14.3298 C   0  0  0  0  0  0  0  0  0  0  0  0
   44.9114   36.7789   15.8559 C   0  0  0  0  0  0  0  0  0  0  0  0
   49.1015   39.2571   15.8937 C   0  0  0  0  0  0  0  0  0  0  0  0
   46.4215   36.3877   15.8551 C   0  0  0  0  0  0  0  0  0  0  0  0
   51.0838   40.0903   16.3177 C   0  0  0  0  0  0  0  0  0  0  0  0
   41.8435   37.0837   14.1529 C   0  0  0  0  0  0  0  0  0  0  0  0
   48.0675   40.3917   16.0056 C   0  0  0  0  0  0  0  0  0  0  0  0
   42.4422   35.7221   14.4876 C   0  0  1  0  0  0  0  0  0  0  0  0
   40.2882   32.6467   14.7117 N   0  0  0  0  0  0  0  0  0  0  0  0
   41.2153   34.4632   12.7866 N   0  0  0  0  0  0  0  0  0  0  0  0
   47.3360   37.5099   16.2846 N   0  0  0  0  0  0  0  0  0  0  0  0
   44.8270   36.0863   14.5874 N   0  0  0  0  0  0  0  0  0  0  0  0
   48.9182   37.2344   14.5990 O   0  0  0  0  0  0  0  0  0  0  0  0
   43.9308   35.0648   12.7379 O   0  0  0  0  0  0  0  0  0  0  0  0
   48.6356   41.4260   16.7803 O   0  0  0  0  0  0  0  0  0  0  0  0
   52.3762   39.7025   16.3964 F   0  0  0  0  0  0  0  0  0  0  0  0
   51.0588   41.4141   16.5956 F   0  0  0  0  0  0  0  0  0  0  0  0
   39.3154   31.7050   13.1493 H   0  0  0  0  0  0  0  0  0  0  0  0
   40.1490   33.3391   11.4177 H   0  0  0  0  0  0  0  0  0  0  0  0
   41.3495   33.7642   16.0830 H   0  0  0  0  0  0  0  0  0  0  0  0
   47.0331   34.5999   18.7666 H   0  0  0  0  0  0  0  0  0  0  0  0
   45.6230   35.6042   18.4569 H   0  0  0  0  0  0  0  0  0  0  0  0
   47.2682   36.9494   19.6325 H   0  0  0  0  0  0  0  0  0  0  0  0
   48.5535   36.4703   18.5261 H   0  0  0  0  0  0  0  0  0  0  0  0
   47.7997   34.8076   16.4638 H   0  0  0  0  0  0  0  0  0  0  0  0
   46.1070   34.3224   16.4366 H   0  0  0  0  0  0  0  0  0  0  0  0
   50.8197   38.8349   14.5106 H   0  0  0  0  0  0  0  0  0  0  0  0
   50.1781   40.4781   14.3104 H   0  0  0  0  0  0  0  0  0  0  0  0
   49.7134   39.6869   18.0377 H   0  0  0  0  0  0  0  0  0  0  0  0
   50.4652   38.2312   17.3537 H   0  0  0  0  0  0  0  0  0  0  0  0
   46.1448   38.2423   17.9044 H   0  0  0  0  0  0  0  0  0  0  0  0
   47.8347   38.7299   17.9097 H   0  0  0  0  0  0  0  0  0  0  0  0
   46.5180   36.9758   13.6697 H   0  0  0  0  0  0  0  0  0  0  0  0
   46.6706   35.2113   13.9364 H   0  0  0  0  0  0  0  0  0  0  0  0
   44.3073   36.3342   16.6495 H   0  0  0  0  0  0  0  0  0  0  0  0
   44.6624   37.8360   15.7352 H   0  0  0  0  0  0  0  0  0  0  0  0
   41.6448   37.1656   13.0783 H   0  0  0  0  0  0  0  0  0  0  0  0
   40.8928   37.2567   14.6697 H   0  0  0  0  0  0  0  0  0  0  0  0
   42.5300   37.8900   14.4335 H   0  0  0  0  0  0  0  0  0  0  0  0
   47.1732   40.0148   16.4919 H   0  0  0  0  0  0  0  0  0  0  0  0
   47.8314   40.7611   15.0127 H   0  0  0  0  0  0  0  0  0  0  0  0
   42.6235   35.6856   15.5679 H   0  0  0  0  0  0  0  0  0  0  0  0
   47.9735   42.1372   16.8443 H   0  0  0  0  0  0  0  0  0  0  0  0
  1  2  1  0  0  0  0
  1 21  2  0  0  0  0
  2 22  2  0  0  0  0
  3  4  2  0  0  0  0
  3 21  1  0  0  0  0
  4 20  1  0  0  0  0
  4 22  1  0  0  0  0
  5 15  1  0  0  0  0
  5 23  1  0  0  0  0
  5 25  2  0  0  0  0
  6 20  1  0  0  0  0
  6 24  1  0  0  0  0
  6 26  2  0  0  0  0
  7  8  1  0  0  0  0
  7  9  1  0  0  0  0
  8 12  1  0  0  0  0
  9 16  1  0  0  0  0
 10 15  1  0  0  0  0
 10 17  1  0  0  0  0
 11 15  1  0  0  0  0
 11 17  1  0  0  0  0
 12 23  1  0  0  0  0
 13 16  1  0  0  0  0
 13 24  1  0  0  0  0
 14 16  1  0  0  0  0
 14 24  1  0  0  0  0
 15 19  1  0  0  0  0
 16 23  1  0  0  0  0
 17 28  1  0  0  0  0
 17 29  1  0  0  0  0
 18 20  1  0  0  0  0
 19 27  1  0  0  0  0
  1 30  1  0  0  0  0
  2 31  1  0  0  0  0
  3 32  1  0  0  0  0
  7 33  1  0  0  0  0
  7 34  1  0  0  0  0
  8 35  1  0  0  0  0
  8 36  1  0  0  0  0
  9 37  1  0  0  0  0
  9 38  1  0  0  0  0
 10 39  1  0  0  0  0
 10 40  1  0  0  0  0
 11 41  1  0  0  0  0
 11 42  1  0  0  0  0
 12 43  1  0  0  0  0
 12 44  1  0  0  0  0
 13 45  1  0  0  0  0
 13 46  1  0  0  0  0
 14 47  1  0  0  0  0
 14 48  1  0  0  0  0
 18 49  1  0  0  0  0
 18 50  1  0  0  0  0
 18 51  1  0  0  0  0
 19 52  1  0  0  0  0
 19 53  1  0  0  0  0
 20 54  1  0  0  0  0
 27 55  1  0  0  0  0
M  END
> <Chemgauss4 Score>
-7.087712287903

> <Number of Confs>
200

> <og_smiles_field>
CC(C(=O)N1CC2(CCCCN2C(=O)C2(CO)CC(F)(F)C2)C1)C1=CN=CC=N1

$$$$

  -OEChem-03232314423D

 40 42  0     1  0  0  0  0  0999 V2000
   49.2266   35.7329   13.8622 C   0  0  0  0  0  0  0  0  0  0  0  0
   50.6388   37.7103   14.5469 C   0  0  0  0  0  0  0  0  0  0  0  0
   42.4013   35.0030   14.0900 C   0  0  0  0  0  0  0  0  0  0  0  0
   40.6065   34.4169   12.2697 C   0  0  0  0  0  0  0  0  0  0  0  0
   41.9679   33.6384   16.0155 C   0  0  0  0  0  0  0  0  0  0  0  0
   50.8012   38.5721   15.6092 C   0  0  0  0  0  0  0  0  0  0  0  0
   49.6128   36.7514   14.7877 C   0  0  0  0  0  0  0  0  0  0  0  0
   41.3006   34.3737   13.4953 C   0  0  0  0  0  0  0  0  0  0  0  0
   42.7340   34.6150   15.3879 C   0  0  0  0  0  0  0  0  0  0  0  0
   40.6232   33.4156   14.2333 C   0  0  0  0  0  0  0  0  0  0  0  0
   49.0302   36.9167   16.0251 C   0  0  0  0  0  0  0  0  0  0  0  0
   46.9174   35.5460   16.0864 C   0  0  0  0  0  0  0  0  0  0  0  0
   46.7970   33.8945   17.9739 C   0  0  0  0  0  0  0  0  0  0  0  0
   38.6301   31.9638   13.7599 C   0  0  0  0  0  0  0  0  0  0  0  0
   43.8912   35.2381   16.0880 C   0  0  0  0  0  0  0  0  0  0  0  0
   46.0206   34.9051   17.1440 C   0  0  2  0  0  0  0  0  0  0  0  0
   48.9129   34.9061   13.1107 N   0  0  0  0  0  0  0  0  0  0  0  0
   40.8965   33.0021   15.4831 N   0  0  0  0  0  0  0  0  0  0  0  0
   39.5778   33.5638   12.2265 N   0  0  0  0  0  0  0  0  0  0  0  0
   39.6130   32.9698   13.4331 N   0  0  0  0  0  0  0  0  0  0  0  0
   47.9920   36.2077   16.6749 N   0  0  0  0  0  0  0  0  0  0  0  0
   44.8903   34.2706   16.4679 N   0  0  0  0  0  0  0  0  0  0  0  0
   46.6908   35.4237   14.8859 O   0  0  0  0  0  0  0  0  0  0  0  0
   49.7195   38.2239   16.8902 S   0  0  0  0  0  0  0  0  0  0  0  0
   51.2315   37.7727   13.6426 H   0  0  0  0  0  0  0  0  0  0  0  0
   42.9709   35.7611   13.5625 H   0  0  0  0  0  0  0  0  0  0  0  0
   40.8055   35.0341   11.4051 H   0  0  0  0  0  0  0  0  0  0  0  0
   42.2090   33.3212   17.0276 H   0  0  0  0  0  0  0  0  0  0  0  0
   51.5030   39.3899   15.6934 H   0  0  0  0  0  0  0  0  0  0  0  0
   47.2227   33.1062   17.3445 H   0  0  0  0  0  0  0  0  0  0  0  0
   46.1509   33.4125   18.7165 H   0  0  0  0  0  0  0  0  0  0  0  0
   47.6171   34.3806   18.5131 H   0  0  0  0  0  0  0  0  0  0  0  0
   37.7733   32.4655   14.2175 H   0  0  0  0  0  0  0  0  0  0  0  0
   38.3256   31.4424   12.8482 H   0  0  0  0  0  0  0  0  0  0  0  0
   39.0685   31.2427   14.4554 H   0  0  0  0  0  0  0  0  0  0  0  0
   44.3850   35.9875   15.4521 H   0  0  0  0  0  0  0  0  0  0  0  0
   43.5778   35.7594   17.0040 H   0  0  0  0  0  0  0  0  0  0  0  0
   45.6021   35.6856   17.7890 H   0  0  0  0  0  0  0  0  0  0  0  0
   48.0519   36.1862   17.6907 H   0  0  0  0  0  0  0  0  0  0  0  0
   44.4820   33.5750   17.0997 H   0  0  0  0  0  0  0  0  0  0  0  0
  1  7  1  0  0  0  0
  1 17  3  0  0  0  0
  2  6  2  0  0  0  0
  2  7  1  0  0  0  0
  3  8  2  0  0  0  0
  3  9  1  0  0  0  0
  4  8  1  0  0  0  0
  4 19  2  0  0  0  0
  5  9  2  0  0  0  0
  5 18  1  0  0  0  0
  6 24  1  0  0  0  0
  7 11  2  0  0  0  0
  8 10  1  0  0  0  0
  9 15  1  0  0  0  0
 10 18  2  0  0  0  0
 10 20  1  0  0  0  0
 11 21  1  0  0  0  0
 11 24  1  0  0  0  0
 12 16  1  0  0  0  0
 12 21  1  0  0  0  0
 12 23  2  0  0  0  0
 13 16  1  0  0  0  0
 14 20  1  0  0  0  0
 15 22  1  0  0  0  0
 16 22  1  0  0  0  0
 19 20  1  0  0  0  0
  2 25  1  0  0  0  0
  3 26  1  0  0  0  0
  4 27  1  0  0  0  0
  5 28  1  0  0  0  0
  6 29  1  0  0  0  0
 13 30  1  0  0  0  0
 13 31  1  0  0  0  0
 13 32  1  0  0  0  0
 14 33  1  0  0  0  0
 14 34  1  0  0  0  0
 14 35  1  0  0  0  0
 15 36  1  0  0  0  0
 15 37  1  0  0  0  0
 16 38  1  0  0  0  0
 21 39  1  0  0  0  0
 22 40  1  0  0  0  0
M  END
> <Chemgauss4 Score>
-6.832829952240

> <Number of Confs>
200

> <og_smiles_field>
CC(NCC1=CN=C2C(=C1)C=NN2C)C(=O)NC1=C(C#N)C=CS1

$$$$

  -OEChem-03232314423D

 45 48  0     1  0  0  0  0  0999 V2000
   43.2688   33.6415   16.7933 C   0  0  0  0  0  0  0  0  0  0  0  0
   42.5112   32.4732   17.0004 C   0  0  0  0  0  0  0  0  0  0  0  0
   46.4065   36.7571   15.5450 C   0  0  0  0  0  0  0  0  0  0  0  0
   47.1001   37.9051   15.2691 C   0  0  0  0  0  0  0  0  0  0  0  0
   46.0230   36.2951   14.2767 C   0  0  0  0  0  0  0  0  0  0  0  0
   42.5738   34.3358   15.8334 C   0  0  0  0  0  0  0  0  0  0  0  0
   46.1850   36.2673   16.9258 C   0  0  0  0  0  0  0  0  0  0  0  0
   47.7667   38.8140   16.2199 C   0  0  0  0  0  0  0  0  0  0  0  0
   47.2674   38.4938   17.6463 C   0  0  0  0  0  0  0  0  0  0  0  0
   38.9144   33.3787   13.0241 C   0  0  0  0  0  0  0  0  0  0  0  0
   40.4546   33.3496   13.0420 C   0  0  0  0  0  0  0  0  0  0  0  0
   38.9727   33.3050   14.5619 C   0  0  0  0  0  0  0  0  0  0  0  0
   47.1604   36.9656   17.9162 C   0  0  1  0  0  0  0  0  0  0  0  0
   40.3807   33.9674   14.4711 C   0  0  0  0  0  0  0  0  0  0  0  0
   46.7321   36.7015   19.3580 C   0  0  0  0  0  0  0  0  0  0  0  0
   45.2402   35.0928   13.9471 C   0  0  0  0  0  0  0  0  0  0  0  0
   42.8567   35.6592   15.1775 C   0  0  0  0  0  0  0  0  0  0  0  0
   41.4185   32.4246   16.2339 N   0  0  0  0  0  0  0  0  0  0  0  0
   46.4546   37.0980   13.2941 N   0  0  0  0  0  0  0  0  0  0  0  0
   41.4843   33.5711   15.5358 N   0  0  0  0  0  0  0  0  0  0  0  0
   47.1469   38.1266   13.9364 O   0  0  0  0  0  0  0  0  0  0  0  0
   43.5079   35.4651   13.5044 S   0  0  0  0  0  0  0  0  0  0  0  0
   44.1905   33.9349   17.2744 H   0  0  0  0  0  0  0  0  0  0  0  0
   42.7115   31.6543   17.6763 H   0  0  0  0  0  0  0  0  0  0  0  0
   45.1469   36.4780   17.2114 H   0  0  0  0  0  0  0  0  0  0  0  0
   46.3252   35.1813   16.9750 H   0  0  0  0  0  0  0  0  0  0  0  0
   48.8505   38.6600   16.1675 H   0  0  0  0  0  0  0  0  0  0  0  0
   47.5628   39.8616   15.9766 H   0  0  0  0  0  0  0  0  0  0  0  0
   47.9398   38.9630   18.3743 H   0  0  0  0  0  0  0  0  0  0  0  0
   46.2780   38.9492   17.7893 H   0  0  0  0  0  0  0  0  0  0  0  0
   38.4945   34.3166   12.6424 H   0  0  0  0  0  0  0  0  0  0  0  0
   38.4268   32.5384   12.5242 H   0  0  0  0  0  0  0  0  0  0  0  0
   40.8734   32.3371   12.9918 H   0  0  0  0  0  0  0  0  0  0  0  0
   40.9422   33.9691   12.2843 H   0  0  0  0  0  0  0  0  0  0  0  0
   38.2112   33.8879   15.0873 H   0  0  0  0  0  0  0  0  0  0  0  0
   38.9640   32.2789   14.9499 H   0  0  0  0  0  0  0  0  0  0  0  0
   48.1607   36.5329   17.7751 H   0  0  0  0  0  0  0  0  0  0  0  0
   40.3218   35.1211   14.4477 H   0  0  0  0  0  0  0  0  0  0  0  0
   45.7416   37.1191   19.5313 H   0  0  0  0  0  0  0  0  0  0  0  0
   47.4393   37.1649   20.0440 H   0  0  0  0  0  0  0  0  0  0  0  0
   46.7046   35.6291   19.5444 H   0  0  0  0  0  0  0  0  0  0  0  0
   45.6854   34.5307   13.1036 H   0  0  0  0  0  0  0  0  0  0  0  0
   45.2191   34.3754   14.7899 H   0  0  0  0  0  0  0  0  0  0  0  0
   41.9440   36.2639   15.1341 H   0  0  0  0  0  0  0  0  0  0  0  0
   43.5798   36.2276   15.7729 H   0  0  0  0  0  0  0  0  0  0  0  0
  1  2  1  0  0  0  0
  1  6  2  0  0  0  0
  2 18  2  0  0  0  0
  3  4  2  0  0  0  0
  3  5  1  0  0  0  0
  3  7  1  0  0  0  0
  4  8  1  0  0  0  0
  4 21  1  0  0  0  0
  5 16  1  0  0  0  0
  5 19  2  0  0  0  0
  6 17  1  0  0  0  0
  6 20  1  0  0  0  0
  7 13  1  0  0  0  0
  8  9  1  0  0  0  0
  9 13  1  0  0  0  0
 10 11  1  0  0  0  0
 10 12  1  0  0  0  0
 11 14  1  0  0  0  0
 12 14  1  0  0  0  0
 13 15  1  0  0  0  0
 14 20  1  0  0  0  0
 16 22  1  0  0  0  0
 17 22  1  0  0  0  0
 18 20  1  0  0  0  0
 19 21  1  0  0  0  0
  1 23  1  0  0  0  0
  2 24  1  0  0  0  0
  7 25  1  0  0  0  0
  7 26  1  0  0  0  0
  8 27  1  0  0  0  0
  8 28  1  0  0  0  0
  9 29  1  0  0  0  0
  9 30  1  0  0  0  0
 10 31  1  0  0  0  0
 10 32  1  0  0  0  0
 11 33  1  0  0  0  0
 11 34  1  0  0  0  0
 12 35  1  0  0  0  0
 12 36  1  0  0  0  0
 13 37  1  0  0  0  0
 14 38  1  0  0  0  0
 15 39  1  0  0  0  0
 15 40  1  0  0  0  0
 15 41  1  0  0  0  0
 16 42  1  0  0  0  0
 16 43  1  0  0  0  0
 17 44  1  0  0  0  0
 17 45  1  0  0  0  0
M  END
> <Chemgauss4 Score>
-7.352928161621

> <Number of Confs>
200

> <og_smiles_field>
CC1CCC2=C(C1)C(CSCC1=CC=NN1C1CCC1)=NO2

$$$$

  -OEChem-03232314423D

 61 64  0     1  0  0  0  0  0999 V2000
   44.9463   35.5398   14.2923 C   0  0  0  0  0  0  0  0  0  0  0  0
   41.1432   36.6085   11.3182 C   0  0  0  0  0  0  0  0  0  0  0  0
   39.3024   32.9816   12.8797 C   0  0  0  0  0  0  0  0  0  0  0  0
   42.9014   39.2229   10.8077 C   0  0  0  0  0  0  0  0  0  0  0  0
   41.5494   38.8271   10.2266 C   0  0  0  0  0  0  0  0  0  0  0  0
   39.3957   34.5188   12.8136 C   0  0  0  0  0  0  0  0  0  0  0  0
   40.4729   32.9225   11.8788 C   0  0  0  0  0  0  0  0  0  0  0  0
   47.3392   35.7965   14.8549 C   0  0  0  0  0  0  0  0  0  0  0  0
   45.5068   36.1265   16.6366 C   0  0  0  0  0  0  0  0  0  0  0  0
   47.8860   35.5781   17.3201 C   0  0  0  0  0  0  0  0  0  0  0  0
   48.7932   37.5362   16.0488 C   0  0  0  0  0  0  0  0  0  0  0  0
   46.9783   37.8579   17.8187 C   0  0  0  0  0  0  0  0  0  0  0  0
   43.9557   38.4999    9.9897 C   0  0  0  0  0  0  0  0  0  0  0  0
   45.9625   35.3719   15.3814 C   0  0  1  0  0  0  0  0  0  0  0  0
   41.5463   37.3132   10.0639 C   0  0  1  0  0  0  0  0  0  0  0  0
   48.3883   36.0500   15.9554 C   0  0  2  0  0  0  0  0  0  0  0  0
   46.6226   36.3635   17.6733 C   0  0  1  0  0  0  0  0  0  0  0  0
   47.6950   38.4520   16.6002 C   0  0  2  0  0  0  0  0  0  0  0  0
   40.8642   34.3558   12.3330 C   0  0  0  0  0  0  0  0  0  0  0  0
   41.9318   34.4456   13.4116 C   0  0  0  0  0  0  0  0  0  0  0  0
   43.3432   34.2933   12.8574 C   0  0  0  0  0  0  0  0  0  0  0  0
   41.2123   35.2412   11.2221 N   0  0  0  0  0  0  0  0  0  0  0  0
   44.3508   34.3590   13.8915 N   0  0  0  0  0  0  0  0  0  0  0  0
   44.7165   36.6583   13.8475 O   0  0  0  0  0  0  0  0  0  0  0  0
   40.7985   37.2633   12.2950 O   0  0  0  0  0  0  0  0  0  0  0  0
   46.7602   38.7420   15.5652 O   0  0  0  0  0  0  0  0  0  0  0  0
   43.2594   36.8544    9.6834 S   0  0  0  0  0  0  0  0  0  0  0  0
   39.5419   32.5662   13.8651 H   0  0  0  0  0  0  0  0  0  0  0  0
   38.3605   32.5489   12.5331 H   0  0  0  0  0  0  0  0  0  0  0  0
   43.0486   40.3072   10.7669 H   0  0  0  0  0  0  0  0  0  0  0  0
   42.9666   38.9286   11.8627 H   0  0  0  0  0  0  0  0  0  0  0  0
   40.7333   39.1741   10.8701 H   0  0  0  0  0  0  0  0  0  0  0  0
   41.4181   39.3071    9.2480 H   0  0  0  0  0  0  0  0  0  0  0  0
   38.7195   34.9608   12.0716 H   0  0  0  0  0  0  0  0  0  0  0  0
   39.2520   35.0361   13.7666 H   0  0  0  0  0  0  0  0  0  0  0  0
   41.2091   32.1360   12.0682 H   0  0  0  0  0  0  0  0  0  0  0  0
   40.1447   32.8485   10.8348 H   0  0  0  0  0  0  0  0  0  0  0  0
   47.7093   34.9867   14.2100 H   0  0  0  0  0  0  0  0  0  0  0  0
   47.2574   36.6587   14.1821 H   0  0  0  0  0  0  0  0  0  0  0  0
   45.0057   37.0664   16.3761 H   0  0  0  0  0  0  0  0  0  0  0  0
   44.7191   35.5260   17.1134 H   0  0  0  0  0  0  0  0  0  0  0  0
   47.6819   34.5006   17.3070 H   0  0  0  0  0  0  0  0  0  0  0  0
   48.6575   35.7360   18.0842 H   0  0  0  0  0  0  0  0  0  0  0  0
   49.6636   37.6065   16.7144 H   0  0  0  0  0  0  0  0  0  0  0  0
   49.1178   37.8885   15.0620 H   0  0  0  0  0  0  0  0  0  0  0  0
   46.0686   38.4291   18.0405 H   0  0  0  0  0  0  0  0  0  0  0  0
   47.6395   37.9636   18.6889 H   0  0  0  0  0  0  0  0  0  0  0  0
   44.1197   38.9986    9.0294 H   0  0  0  0  0  0  0  0  0  0  0  0
   44.9100   38.4322   10.5188 H   0  0  0  0  0  0  0  0  0  0  0  0
   45.9966   34.2993   15.6140 H   0  0  0  0  0  0  0  0  0  0  0  0
   40.8750   36.9956    9.2606 H   0  0  0  0  0  0  0  0  0  0  0  0
   49.2927   35.4835   15.6983 H   0  0  0  0  0  0  0  0  0  0  0  0
   46.2569   36.0207   18.6498 H   0  0  0  0  0  0  0  0  0  0  0  0
   48.1456   39.4113   16.8803 H   0  0  0  0  0  0  0  0  0  0  0  0
   41.7532   33.6534   14.1480 H   0  0  0  0  0  0  0  0  0  0  0  0
   41.8345   35.4037   13.9358 H   0  0  0  0  0  0  0  0  0  0  0  0
   43.4503   33.3202   12.3679 H   0  0  0  0  0  0  0  0  0  0  0  0
   43.5672   35.0716   12.1211 H   0  0  0  0  0  0  0  0  0  0  0  0
   41.5145   34.8314   10.3524 H   0  0  0  0  0  0  0  0  0  0  0  0
   44.6347   33.4960   14.3454 H   0  0  0  0  0  0  0  0  0  0  0  0
   47.2574   39.1827   14.8585 H   0  0  0  0  0  0  0  0  0  0  0  0
  1 14  1  0  0  0  0
  1 23  1  0  0  0  0
  1 24  2  0  0  0  0
  2 15  1  0  0  0  0
  2 22  1  0  0  0  0
  2 25  2  0  0  0  0
  3  6  1  0  0  0  0
  3  7  1  0  0  0  0
  4  5  1  0  0  0  0
  4 13  1  0  0  0  0
  5 15  1  0  0  0  0
  6 19  1  0  0  0  0
  7 19  1  0  0  0  0
  8 14  1  0  0  0  0
  8 16  1  0  0  0  0
  9 14  1  0  0  0  0
  9 17  1  0  0  0  0
 10 16  1  0  0  0  0
 10 17  1  0  0  0  0
 11 16  1  0  0  0  0
 11 18  1  0  0  0  0
 12 17  1  0  0  0  0
 12 18  1  0  0  0  0
 13 27  1  0  0  0  0
 15 27  1  0  0  0  0
 18 26  1  0  0  0  0
 19 20  1  0  0  0  0
 19 22  1  0  0  0  0
 20 21  1  0  0  0  0
 21 23  1  0  0  0  0
  3 28  1  0  0  0  0
  3 29  1  0  0  0  0
  4 30  1  0  0  0  0
  4 31  1  0  0  0  0
  5 32  1  0  0  0  0
  5 33  1  0  0  0  0
  6 34  1  0  0  0  0
  6 35  1  0  0  0  0
  7 36  1  0  0  0  0
  7 37  1  0  0  0  0
  8 38  1  0  0  0  0
  8 39  1  0  0  0  0
  9 40  1  0  0  0  0
  9 41  1  0  0  0  0
 10 42  1  0  0  0  0
 10 43  1  0  0  0  0
 11 44  1  0  0  0  0
 11 45  1  0  0  0  0
 12 46  1  0  0  0  0
 12 47  1  0  0  0  0
 13 48  1  0  0  0  0
 13 49  1  0  0  0  0
 14 50  1  0  0  0  0
 15 51  1  0  0  0  0
 16 52  1  0  0  0  0
 17 53  1  0  0  0  0
 18 54  1  0  0  0  0
 20 55  1  0  0  0  0
 20 56  1  0  0  0  0
 21 57  1  0  0  0  0
 21 58  1  0  0  0  0
 22 59  1  0  0  0  0
 23 60  1  0  0  0  0
 26 61  1  0  0  0  0
M  END
> <Chemgauss4 Score>
-5.789630889893

> <Number of Confs>
200

> <og_smiles_field>
O=C(NC1(CCNC(=O)[C@H]2C[C@H]3C[C@@H](O)C[C@H](C3)C2)CCC1)C1CCCS1

$$$$

  -OEChem-03232314423D

 43 45  0     1  0  0  0  0  0999 V2000
   47.9500   38.3808   15.9731 C   0  0  0  0  0  0  0  0  0  0  0  0
   48.6855   36.1361   15.4659 C   0  0  0  0  0  0  0  0  0  0  0  0
   50.2801   37.9507   15.5009 C   0  0  0  0  0  0  0  0  0  0  0  0
   41.7813   34.3720   13.4689 C   0  0  0  0  0  0  0  0  0  0  0  0
   41.6350   33.1420   15.4992 C   0  0  0  0  0  0  0  0  0  0  0  0
   39.7975   33.2352   14.1234 C   0  0  0  0  0  0  0  0  0  0  0  0
   47.6636   37.0277   15.7923 C   0  0  0  0  0  0  0  0  0  0  0  0
   49.2583   38.8423   15.8273 C   0  0  0  0  0  0  0  0  0  0  0  0
   42.3861   33.9265   14.6389 C   0  0  0  0  0  0  0  0  0  0  0  0
   40.4624   34.0242   13.1987 C   0  0  0  0  0  0  0  0  0  0  0  0
   49.9937   36.5976   15.3201 C   0  0  0  0  0  0  0  0  0  0  0  0
   44.4142   35.4119   14.5697 C   0  0  0  0  0  0  0  0  0  0  0  0
   46.0311   35.1717   16.5428 C   0  0  0  0  0  0  0  0  0  0  0  0
   46.2659   36.5348   15.9481 C   0  0  2  0  0  0  0  0  0  0  0  0
   45.7911   35.3918   15.0777 C   0  0  2  0  0  0  0  0  0  0  0  0
   49.5642   40.2892   16.0206 C   0  0  0  0  0  0  0  0  0  0  0  0
   40.5310   35.2862   11.0626 C   0  0  0  0  0  0  0  0  0  0  0  0
   38.4512   34.0792   11.7453 C   0  0  0  0  0  0  0  0  0  0  0  0
   40.3517   32.7836   15.2708 N   0  0  0  0  0  0  0  0  0  0  0  0
   43.7269   34.2634   14.9412 N   0  0  0  0  0  0  0  0  0  0  0  0
   39.8248   34.4593   12.0253 N   0  0  0  0  0  0  0  0  0  0  0  0
   44.0012   36.3615   13.9120 O   0  0  0  0  0  0  0  0  0  0  0  0
   51.3784   35.3895   14.8778 Br  0  0  0  0  0  0  0  0  0  0  0  0
   47.1540   39.0766   16.2277 H   0  0  0  0  0  0  0  0  0  0  0  0
   48.4555   35.0821   15.3263 H   0  0  0  0  0  0  0  0  0  0  0  0
   51.2978   38.3179   15.3889 H   0  0  0  0  0  0  0  0  0  0  0  0
   42.3377   34.9899   12.7678 H   0  0  0  0  0  0  0  0  0  0  0  0
   42.0519   32.7660   16.4289 H   0  0  0  0  0  0  0  0  0  0  0  0
   38.7665   32.9316   13.9674 H   0  0  0  0  0  0  0  0  0  0  0  0
   46.8846   34.5664   16.8258 H   0  0  0  0  0  0  0  0  0  0  0  0
   45.1753   35.0557   17.1978 H   0  0  0  0  0  0  0  0  0  0  0  0
   45.5386   37.2967   16.2021 H   0  0  0  0  0  0  0  0  0  0  0  0
   46.5085   34.9402   14.3997 H   0  0  0  0  0  0  0  0  0  0  0  0
   49.8138   40.4899   17.0696 H   0  0  0  0  0  0  0  0  0  0  0  0
   50.4094   40.6047   15.3953 H   0  0  0  0  0  0  0  0  0  0  0  0
   48.7093   40.9181   15.7398 H   0  0  0  0  0  0  0  0  0  0  0  0
   39.8641   35.5190   10.2194 H   0  0  0  0  0  0  0  0  0  0  0  0
   40.8501   36.2210   11.5466 H   0  0  0  0  0  0  0  0  0  0  0  0
   41.4142   34.7448   10.6926 H   0  0  0  0  0  0  0  0  0  0  0  0
   38.1373   34.5169   10.7862 H   0  0  0  0  0  0  0  0  0  0  0  0
   38.3784   32.9830   11.6892 H   0  0  0  0  0  0  0  0  0  0  0  0
   37.7974   34.4494   12.5487 H   0  0  0  0  0  0  0  0  0  0  0  0
   44.2343   33.5771   15.4958 H   0  0  0  0  0  0  0  0  0  0  0  0
  1  7  2  0  0  0  0
  1  8  1  0  0  0  0
  2  7  1  0  0  0  0
  2 11  2  0  0  0  0
  3  8  2  0  0  0  0
  3 11  1  0  0  0  0
  4  9  2  0  0  0  0
  4 10  1  0  0  0  0
  5  9  1  0  0  0  0
  5 19  2  0  0  0  0
  6 10  2  0  0  0  0
  6 19  1  0  0  0  0
  7 14  1  0  0  0  0
  8 16  1  0  0  0  0
  9 20  1  0  0  0  0
 10 21  1  0  0  0  0
 11 23  1  0  0  0  0
 12 15  1  0  0  0  0
 12 20  1  0  0  0  0
 12 22  2  0  0  0  0
 13 14  1  0  0  0  0
 13 15  1  0  0  0  0
 14 15  1  0  0  0  0
 17 21  1  0  0  0  0
 18 21  1  0  0  0  0
  1 24  1  0  0  0  0
  2 25  1  0  0  0  0
  3 26  1  0  0  0  0
  4 27  1  0  0  0  0
  5 28  1  0  0  0  0
  6 29  1  0  0  0  0
 13 30  1  0  0  0  0
 13 31  1  0  0  0  0
 14 32  1  0  0  0  0
 15 33  1  0  0  0  0
 16 34  1  0  0  0  0
 16 35  1  0  0  0  0
 16 36  1  0  0  0  0
 17 37  1  0  0  0  0
 17 38  1  0  0  0  0
 17 39  1  0  0  0  0
 18 40  1  0  0  0  0
 18 41  1  0  0  0  0
 18 42  1  0  0  0  0
 20 43  1  0  0  0  0
M  END
> <Chemgauss4 Score>
-7.559617996216

> <Number of Confs>
126

> <og_smiles_field>
CC1=CC(Br)=CC([C@@H]2C[C@H]2C(=O)NC2=CC(N(C)C)=CN=C2)=C1

$$$$

  -OEChem-03232314423D

 59 62  0     1  0  0  0  0  0999 V2000
   41.0378   34.7158   12.9866 C   0  0  0  0  0  0  0  0  0  0  0  0
   39.6802   34.4001   12.9485 C   0  0  0  0  0  0  0  0  0  0  0  0
   41.8222   34.0508   13.9167 C   0  0  0  0  0  0  0  0  0  0  0  0
   39.2143   33.4724   13.8677 C   0  0  0  0  0  0  0  0  0  0  0  0
   43.2690   34.2885   14.0421 C   0  0  0  0  0  0  0  0  0  0  0  0
   48.0580   37.2731   17.4801 C   0  0  0  0  0  0  0  0  0  0  0  0
   41.6564   35.6894   12.0226 C   0  0  0  0  0  0  0  0  0  0  0  0
   38.7317   35.0755   11.9976 C   0  0  0  0  0  0  0  0  0  0  0  0
   40.6246   36.5896   11.3423 C   0  0  0  0  0  0  0  0  0  0  0  0
   39.4456   35.7660   10.8351 C   0  0  0  0  0  0  0  0  0  0  0  0
   45.5639   36.4040   14.9921 C   0  0  0  0  0  0  0  0  0  0  0  0
   45.6277   34.7188   16.8644 C   0  0  0  0  0  0  0  0  0  0  0  0
   48.5280   39.7741   17.8974 C   0  0  0  0  0  0  0  0  0  0  0  0
   47.0483   36.6799   15.2223 C   0  0  0  0  0  0  0  0  0  0  0  0
   47.1102   35.0276   17.0555 C   0  0  0  0  0  0  0  0  0  0  0  0
   48.3791   38.6414   16.9340 C   0  0  2  0  0  0  0  0  0  0  0  0
   47.3222   39.6970   17.0046 C   0  0  2  0  0  0  0  0  0  0  0  0
   45.1878   34.9805   15.4195 C   0  0  0  0  0  0  0  0  0  0  0  0
   42.9438   35.0471   16.4408 C   0  0  0  0  0  0  0  0  0  0  0  0
   48.3117   41.7815   14.1597 C   0  0  0  0  0  0  0  0  0  0  0  0
   47.1654   40.6534   15.8732 C   0  0  0  0  0  0  0  0  0  0  0  0
   41.3331   33.1441   14.7896 N   0  0  0  0  0  0  0  0  0  0  0  0
   40.0086   32.8531   14.7670 N   0  0  0  0  0  0  0  0  0  0  0  0
   47.4221   36.3872   16.6113 N   0  0  0  0  0  0  0  0  0  0  0  0
   43.7705   34.7565   15.2663 N   0  0  0  0  0  0  0  0  0  0  0  0
   43.9496   34.0411   13.0473 O   0  0  0  0  0  0  0  0  0  0  0  0
   48.3620   37.0026   18.6448 O   0  0  0  0  0  0  0  0  0  0  0  0
   37.8892   33.1298   13.8976 O   0  0  0  0  0  0  0  0  0  0  0  0
   48.4278   40.8733   15.2435 O   0  0  0  0  0  0  0  0  0  0  0  0
   42.3704   36.3138   12.5745 H   0  0  0  0  0  0  0  0  0  0  0  0
   42.2112   35.1581   11.2406 H   0  0  0  0  0  0  0  0  0  0  0  0
   38.0459   34.3169   11.6004 H   0  0  0  0  0  0  0  0  0  0  0  0
   38.1300   35.8249   12.5254 H   0  0  0  0  0  0  0  0  0  0  0  0
   40.2773   37.3511   12.0500 H   0  0  0  0  0  0  0  0  0  0  0  0
   41.0887   37.1205   10.5013 H   0  0  0  0  0  0  0  0  0  0  0  0
   39.7909   35.0138   10.1170 H   0  0  0  0  0  0  0  0  0  0  0  0
   38.7442   36.4207   10.3023 H   0  0  0  0  0  0  0  0  0  0  0  0
   44.9590   37.1386   15.5291 H   0  0  0  0  0  0  0  0  0  0  0  0
   45.3405   36.5264   13.9280 H   0  0  0  0  0  0  0  0  0  0  0  0
   45.4517   33.6663   17.1025 H   0  0  0  0  0  0  0  0  0  0  0  0
   45.0289   35.3072   17.5623 H   0  0  0  0  0  0  0  0  0  0  0  0
   48.3805   39.5966   18.9562 H   0  0  0  0  0  0  0  0  0  0  0  0
   49.2921   40.5093   17.6745 H   0  0  0  0  0  0  0  0  0  0  0  0
   47.6383   36.0960   14.5128 H   0  0  0  0  0  0  0  0  0  0  0  0
   47.2803   37.7360   15.0395 H   0  0  0  0  0  0  0  0  0  0  0  0
   47.3894   34.9565   18.1131 H   0  0  0  0  0  0  0  0  0  0  0  0
   47.7127   34.2944   16.5102 H   0  0  0  0  0  0  0  0  0  0  0  0
   49.0327   38.6108   16.0821 H   0  0  0  0  0  0  0  0  0  0  0  0
   46.3710   39.4647   17.4691 H   0  0  0  0  0  0  0  0  0  0  0  0
   45.6787   34.2617   14.7560 H   0  0  0  0  0  0  0  0  0  0  0  0
   42.8550   34.1425   17.0603 H   0  0  0  0  0  0  0  0  0  0  0  0
   43.4123   35.8498   17.0293 H   0  0  0  0  0  0  0  0  0  0  0  0
   41.9434   35.3677   16.1146 H   0  0  0  0  0  0  0  0  0  0  0  0
   49.2920   41.9285   13.6999 H   0  0  0  0  0  0  0  0  0  0  0  0
   47.9210   42.7355   14.5228 H   0  0  0  0  0  0  0  0  0  0  0  0
   47.6234   41.3660   13.4199 H   0  0  0  0  0  0  0  0  0  0  0  0
   46.7859   41.6308   16.2150 H   0  0  0  0  0  0  0  0  0  0  0  0
   46.4706   40.2696   15.1077 H   0  0  0  0  0  0  0  0  0  0  0  0
   37.7348   32.4749   14.5933 H   0  0  0  0  0  0  0  0  0  0  0  0
  1  2  2  0  0  0  0
  1  3  1  0  0  0  0
  1  7  1  0  0  0  0
  2  4  1  0  0  0  0
  2  8  1  0  0  0  0
  3  5  1  0  0  0  0
  3 22  2  0  0  0  0
  4 23  2  0  0  0  0
  4 28  1  0  0  0  0
  5 25  1  0  0  0  0
  5 26  2  0  0  0  0
  6 16  1  0  0  0  0
  6 24  1  0  0  0  0
  6 27  2  0  0  0  0
  7  9  1  0  0  0  0
  8 10  1  0  0  0  0
  9 10  1  0  0  0  0
 11 14  1  0  0  0  0
 11 18  1  0  0  0  0
 12 15  1  0  0  0  0
 12 18  1  0  0  0  0
 13 16  1  0  0  0  0
 13 17  1  0  0  0  0
 14 24  1  0  0  0  0
 15 24  1  0  0  0  0
 16 17  1  0  0  0  0
 17 21  1  0  0  0  0
 18 25  1  0  0  0  0
 19 25  1  0  0  0  0
 20 29  1  0  0  0  0
 21 29  1  0  0  0  0
 22 23  1  0  0  0  0
  7 30  1  0  0  0  0
  7 31  1  0  0  0  0
  8 32  1  0  0  0  0
  8 33  1  0  0  0  0
  9 34  1  0  0  0  0
  9 35  1  0  0  0  0
 10 36  1  0  0  0  0
 10 37  1  0  0  0  0
 11 38  1  0  0  0  0
 11 39  1  0  0  0  0
 12 40  1  0  0  0  0
 12 41  1  0  0  0  0
 13 42  1  0  0  0  0
 13 43  1  0  0  0  0
 14 44  1  0  0  0  0
 14 45  1  0  0  0  0
 15 46  1  0  0  0  0
 15 47  1  0  0  0  0
 16 48  1  0  0  0  0
 17 49  1  0  0  0  0
 18 50  1  0  0  0  0
 19 51  1  0  0  0  0
 19 52  1  0  0  0  0
 19 53  1  0  0  0  0
 20 54  1  0  0  0  0
 20 55  1  0  0  0  0
 20 56  1  0  0  0  0
 21 57  1  0  0  0  0
 21 58  1  0  0  0  0
 28 59  1  0  0  0  0
M  END
> <Chemgauss4 Score>
-7.182254791260

> <Number of Confs>
200

> <og_smiles_field>
COC[C@@H]1C[C@H]1C(=O)N1CCC(N(C)C(=O)C2=NN=C(O)C3=C2CCCC3)CC1

$$$$

  -OEChem-03232314423D

 47 50  0     1  0  0  0  0  0999 V2000
   41.0643   33.4081   10.7023 C   0  0  0  0  0  0  0  0  0  0  0  0
   41.1697   34.7828   10.9326 C   0  0  0  0  0  0  0  0  0  0  0  0
   41.7278   32.9160   12.9858 C   0  0  0  0  0  0  0  0  0  0  0  0
   48.9418   37.0668   18.2449 C   0  0  0  0  0  0  0  0  0  0  0  0
   42.1317   36.3958   14.0293 C   0  0  0  0  0  0  0  0  0  0  0  0
   41.8410   34.2970   13.2416 C   0  0  0  0  0  0  0  0  0  0  0  0
   41.3386   32.4874   11.7116 C   0  0  0  0  0  0  0  0  0  0  0  0
   41.5599   35.1968   12.2112 C   0  0  0  0  0  0  0  0  0  0  0  0
   42.2001   35.0678   14.3826 C   0  0  0  0  0  0  0  0  0  0  0  0
   48.6975   37.5668   16.9867 C   0  0  0  0  0  0  0  0  0  0  0  0
   47.2700   35.9544   17.5132 C   0  0  0  0  0  0  0  0  0  0  0  0
   41.2197   31.0631   11.4397 C   0  0  0  0  0  0  0  0  0  0  0  0
   46.1531   34.9876   17.3180 C   0  0  0  0  0  0  0  0  0  0  0  0
   46.0326   35.8347   14.9435 C   0  0  0  0  0  0  0  0  0  0  0  0
   46.9435   37.0177   15.2731 C   0  0  0  0  0  0  0  0  0  0  0  0
   45.2234   35.4164   16.1764 C   0  0  1  0  0  0  0  0  0  0  0  0
   49.3724   38.6207   16.2098 C   0  0  0  0  0  0  0  0  0  0  0  0
   39.7041   29.3484   10.7669 C   0  0  0  0  0  0  0  0  0  0  0  0
   48.0553   36.0673   18.5656 N   0  0  0  0  0  0  0  0  0  0  0  0
   41.7445   36.4634   12.7178 N   0  0  0  0  0  0  0  0  0  0  0  0
   47.6327   36.8470   16.5356 N   0  0  0  0  0  0  0  0  0  0  0  0
   44.3361   34.2825   15.8200 N   0  0  0  0  0  0  0  0  0  0  0  0
   42.1497   30.2520   11.5381 O   0  0  0  0  0  0  0  0  0  0  0  0
   42.3583   35.4758   16.9553 O   0  0  0  0  0  0  0  0  0  0  0  0
   42.0671   33.1292   16.0993 O   0  0  0  0  0  0  0  0  0  0  0  0
   39.9485   30.7279   11.0616 O   0  0  0  0  0  0  0  0  0  0  0  0
   42.6552   34.4491   15.9747 S   0  0  0  0  0  0  0  0  0  0  0  0
   40.7622   33.0646    9.7151 H   0  0  0  0  0  0  0  0  0  0  0  0
   40.9563   35.4989   10.1462 H   0  0  0  0  0  0  0  0  0  0  0  0
   41.9406   32.1934   13.7694 H   0  0  0  0  0  0  0  0  0  0  0  0
   49.7121   37.3722   18.9384 H   0  0  0  0  0  0  0  0  0  0  0  0
   42.3232   37.2992   14.5917 H   0  0  0  0  0  0  0  0  0  0  0  0
   46.5571   33.9897   17.1319 H   0  0  0  0  0  0  0  0  0  0  0  0
   45.5803   34.9467   18.2489 H   0  0  0  0  0  0  0  0  0  0  0  0
   45.3393   36.1265   14.1529 H   0  0  0  0  0  0  0  0  0  0  0  0
   46.6326   35.0051   14.5714 H   0  0  0  0  0  0  0  0  0  0  0  0
   47.7166   37.1398   14.5069 H   0  0  0  0  0  0  0  0  0  0  0  0
   46.3553   37.9393   15.3247 H   0  0  0  0  0  0  0  0  0  0  0  0
   44.5925   36.2315   16.5042 H   0  0  0  0  0  0  0  0  0  0  0  0
   50.1898   38.2045   15.5965 H   0  0  0  0  0  0  0  0  0  0  0  0
   48.6790   39.1449   15.5284 H   0  0  0  0  0  0  0  0  0  0  0  0
   49.8075   39.4023   16.8578 H   0  0  0  0  0  0  0  0  0  0  0  0
   38.6580   29.2161   10.4800 H   0  0  0  0  0  0  0  0  0  0  0  0
   39.9313   28.7412   11.6468 H   0  0  0  0  0  0  0  0  0  0  0  0
   40.3481   29.0422    9.9392 H   0  0  0  0  0  0  0  0  0  0  0  0
   41.6133   37.3191   12.1962 H   0  0  0  0  0  0  0  0  0  0  0  0
   44.7224   33.6259   15.1416 H   0  0  0  0  0  0  0  0  0  0  0  0
  1  2  1  0  0  0  0
  1  7  2  0  0  0  0
  2  8  2  0  0  0  0
  3  6  2  0  0  0  0
  3  7  1  0  0  0  0
  4 10  2  0  0  0  0
  4 19  1  0  0  0  0
  5  9  2  0  0  0  0
  5 20  1  0  0  0  0
  6  8  1  0  0  0  0
  6  9  1  0  0  0  0
  7 12  1  0  0  0  0
  8 20  1  0  0  0  0
  9 27  1  0  0  0  0
 10 17  1  0  0  0  0
 10 21  1  0  0  0  0
 11 13  1  0  0  0  0
 11 19  2  0  0  0  0
 11 21  1  0  0  0  0
 12 23  2  0  0  0  0
 12 26  1  0  0  0  0
 13 16  1  0  0  0  0
 14 15  1  0  0  0  0
 14 16  1  0  0  0  0
 15 21  1  0  0  0  0
 16 22  1  0  0  0  0
 18 26  1  0  0  0  0
 22 27  1  0  0  0  0
 24 27  2  0  0  0  0
 25 27  2  0  0  0  0
  1 28  1  0  0  0  0
  2 29  1  0  0  0  0
  3 30  1  0  0  0  0
  4 31  1  0  0  0  0
  5 32  1  0  0  0  0
 13 33  1  0  0  0  0
 13 34  1  0  0  0  0
 14 35  1  0  0  0  0
 14 36  1  0  0  0  0
 15 37  1  0  0  0  0
 15 38  1  0  0  0  0
 16 39  1  0  0  0  0
 17 40  1  0  0  0  0
 17 41  1  0  0  0  0
 17 42  1  0  0  0  0
 18 43  1  0  0  0  0
 18 44  1  0  0  0  0
 18 45  1  0  0  0  0
 20 46  1  0  0  0  0
 22 47  1  0  0  0  0
M  END
> <Chemgauss4 Score>
-6.888153553009

> <Number of Confs>
200

> <og_smiles_field>
COC(=O)C1=CC=C2NC=C(S(=O)(=O)NC3CCN4C(C)=CN=C4C3)C2=C1

$$$$

  -OEChem-03232314423D

 58 60  0     1  0  0  0  0  0999 V2000
   47.0400   38.0078   16.0953 C   0  0  0  0  0  0  0  0  0  0  0  0
   42.7743   34.0984   15.8568 C   0  0  0  0  0  0  0  0  0  0  0  0
   47.0943   39.2013   13.8214 C   0  0  0  0  0  0  0  0  0  0  0  0
   45.8478   35.6280   18.6515 C   0  0  0  0  0  0  0  0  0  0  0  0
   44.8656   33.7799   17.1546 C   0  0  0  0  0  0  0  0  0  0  0  0
   44.6987   35.7503   15.7709 C   0  0  0  0  0  0  0  0  0  0  0  0
   46.8656   37.9537   14.6124 C   0  0  1  0  0  0  0  0  0  0  0  0
   46.0476   34.6808   17.4649 C   0  0  1  0  0  0  0  0  0  0  0  0
   48.0574   38.0533   13.7132 C   0  0  2  0  0  0  0  0  0  0  0  0
   46.1387   35.6340   16.2696 C   0  0  2  0  0  0  0  0  0  0  0  0
   46.7029   36.8447   18.2817 C   0  0  1  0  0  0  0  0  0  0  0  0
   48.1361   36.7114   18.7945 C   0  0  0  0  0  0  0  0  0  0  0  0
   43.2935   33.8962   13.4429 C   0  0  0  0  0  0  0  0  0  0  0  0
   42.2544   36.0013   14.3548 C   0  0  0  0  0  0  0  0  0  0  0  0
   49.8941   35.9933   15.0693 C   0  0  0  0  0  0  0  0  0  0  0  0
   51.6496   37.2522   14.0176 C   0  0  0  0  0  0  0  0  0  0  0  0
   40.3755   34.3456   12.5505 C   0  0  0  0  0  0  0  0  0  0  0  0
   49.4505   38.1979   14.2236 C   0  0  0  0  0  0  0  0  0  0  0  0
   42.3297   34.4828   14.4683 C   0  0  0  0  0  0  0  0  0  0  0  0
   46.6629   36.8822   16.8161 N   0  0  0  0  0  0  0  0  0  0  0  0
   44.0382   34.5300   16.2213 N   0  0  0  0  0  0  0  0  0  0  0  0
   50.2019   36.9885   14.0299 N   0  0  0  0  0  0  0  0  0  0  0  0
   47.4775   39.0406   16.5951 O   0  0  0  0  0  0  0  0  0  0  0  0
   42.0342   33.4379   16.5878 O   0  0  0  0  0  0  0  0  0  0  0  0
   40.6714   33.7589   14.2328 S   0  0  0  0  0  0  0  0  0  0  0  0
   46.4296   39.3809   12.9846 H   0  0  0  0  0  0  0  0  0  0  0  0
   47.4174   40.1019   14.3299 H   0  0  0  0  0  0  0  0  0  0  0  0
   44.7965   35.9288   18.7415 H   0  0  0  0  0  0  0  0  0  0  0  0
   46.1427   35.1623   19.5971 H   0  0  0  0  0  0  0  0  0  0  0  0
   45.1891   32.8698   16.6370 H   0  0  0  0  0  0  0  0  0  0  0  0
   44.2875   33.4888   18.0373 H   0  0  0  0  0  0  0  0  0  0  0  0
   44.1651   36.5986   16.2150 H   0  0  0  0  0  0  0  0  0  0  0  0
   44.6437   35.8369   14.6819 H   0  0  0  0  0  0  0  0  0  0  0  0
   46.0611   37.3066   14.3128 H   0  0  0  0  0  0  0  0  0  0  0  0
   46.9727   34.1069   17.5925 H   0  0  0  0  0  0  0  0  0  0  0  0
   48.0268   37.4565   12.8084 H   0  0  0  0  0  0  0  0  0  0  0  0
   46.7986   35.2377   15.4910 H   0  0  0  0  0  0  0  0  0  0  0  0
   46.2666   37.7681   18.6792 H   0  0  0  0  0  0  0  0  0  0  0  0
   48.5825   35.7973   18.4071 H   0  0  0  0  0  0  0  0  0  0  0  0
   48.1363   36.6757   19.8824 H   0  0  0  0  0  0  0  0  0  0  0  0
   48.7262   37.5647   18.4648 H   0  0  0  0  0  0  0  0  0  0  0  0
   43.0076   34.1517   12.4153 H   0  0  0  0  0  0  0  0  0  0  0  0
   43.3053   32.8013   13.5022 H   0  0  0  0  0  0  0  0  0  0  0  0
   44.3193   34.2448   13.6089 H   0  0  0  0  0  0  0  0  0  0  0  0
   41.9332   36.3145   13.3548 H   0  0  0  0  0  0  0  0  0  0  0  0
   41.5635   36.4353   15.0878 H   0  0  0  0  0  0  0  0  0  0  0  0
   43.2355   36.4543   14.5421 H   0  0  0  0  0  0  0  0  0  0  0  0
   48.8121   35.7954   15.0794 H   0  0  0  0  0  0  0  0  0  0  0  0
   50.4354   35.0600   14.8549 H   0  0  0  0  0  0  0  0  0  0  0  0
   50.2051   36.3803   16.0509 H   0  0  0  0  0  0  0  0  0  0  0  0
   51.8807   37.9961   13.2409 H   0  0  0  0  0  0  0  0  0  0  0  0
   51.9601   37.6388   14.9995 H   0  0  0  0  0  0  0  0  0  0  0  0
   52.1904   36.3185   13.8034 H   0  0  0  0  0  0  0  0  0  0  0  0
   39.3952   34.0074   12.2058 H   0  0  0  0  0  0  0  0  0  0  0  0
   41.1440   33.9530   11.8800 H   0  0  0  0  0  0  0  0  0  0  0  0
   40.4052   35.4376   12.5276 H   0  0  0  0  0  0  0  0  0  0  0  0
   49.9468   39.0189   13.6854 H   0  0  0  0  0  0  0  0  0  0  0  0
   49.4169   38.4314   15.2980 H   0  0  0  0  0  0  0  0  0  0  0  0
  1  7  1  0  0  0  0
  1 20  1  0  0  0  0
  1 23  2  0  0  0  0
  2 19  1  0  0  0  0
  2 21  1  0  0  0  0
  2 24  2  0  0  0  0
  3  7  1  0  0  0  0
  3  9  1  0  0  0  0
  4  8  1  0  0  0  0
  4 11  1  0  0  0  0
  5  8  1  0  0  0  0
  5 21  1  0  0  0  0
  6 10  1  0  0  0  0
  6 21  1  0  0  0  0
  7  9  1  0  0  0  0
  8 10  1  0  0  0  0
  9 18  1  0  0  0  0
 10 20  1  0  0  0  0
 11 12  1  0  0  0  0
 11 20  1  0  0  0  0
 13 19  1  0  0  0  0
 14 19  1  0  0  0  0
 15 22  1  0  0  0  0
 16 22  1  0  0  0  0
 17 25  1  0  0  0  0
 18 22  1  0  0  0  0
 19 25  1  0  0  0  0
  3 26  1  0  0  0  0
  3 27  1  0  0  0  0
  4 28  1  0  0  0  0
  4 29  1  0  0  0  0
  5 30  1  0  0  0  0
  5 31  1  0  0  0  0
  6 32  1  0  0  0  0
  6 33  1  0  0  0  0
  7 34  1  0  0  0  0
  8 35  1  0  0  0  0
  9 36  1  0  0  0  0
 10 37  1  0  0  0  0
 11 38  1  0  0  0  0
 12 39  1  0  0  0  0
 12 40  1  0  0  0  0
 12 41  1  0  0  0  0
 13 42  1  0  0  0  0
 13 43  1  0  0  0  0
 13 44  1  0  0  0  0
 14 45  1  0  0  0  0
 14 46  1  0  0  0  0
 14 47  1  0  0  0  0
 15 48  1  0  0  0  0
 15 49  1  0  0  0  0
 15 50  1  0  0  0  0
 16 51  1  0  0  0  0
 16 52  1  0  0  0  0
 16 53  1  0  0  0  0
 17 54  1  0  0  0  0
 17 55  1  0  0  0  0
 17 56  1  0  0  0  0
 18 57  1  0  0  0  0
 18 58  1  0  0  0  0
M  END
> <Chemgauss4 Score>
-5.872433185577

> <Number of Confs>
49

> <og_smiles_field>
CSC(C)(C)C(=O)N1C[C@@H]2C[C@@H](C)N(C(=O)[C@H]3C[C@H]3CN(C)C)[C@@H]2C1

$$$$

  -OEChem-03232314423D

 47 47  0     0  0  0  0  0  0999 V2000
   46.8117   42.3132   16.5996 C   0  0  0  0  0  0  0  0  0  0  0  0
   43.0998   34.2884   12.1391 C   0  0  0  0  0  0  0  0  0  0  0  0
   41.9645   35.2806   12.3720 C   0  0  0  0  0  0  0  0  0  0  0  0
   43.9876   34.4034   13.3695 C   0  0  0  0  0  0  0  0  0  0  0  0
   42.2572   35.9094   13.7262 C   0  0  0  0  0  0  0  0  0  0  0  0
   48.8043   39.6209   14.2488 C   0  0  0  0  0  0  0  0  0  0  0  0
   50.3146   39.0876   16.1756 C   0  0  0  0  0  0  0  0  0  0  0  0
   47.1298   40.8553   16.4153 C   0  0  0  0  0  0  0  0  0  0  0  0
   45.6342   35.7349   15.4250 C   0  0  0  0  0  0  0  0  0  0  0  0
   44.1308   35.9130   15.2463 C   0  0  0  0  0  0  0  0  0  0  0  0
   47.8793   38.3507   16.2078 C   0  0  0  0  0  0  0  0  0  0  0  0
   46.0742   35.9197   16.8709 C   0  0  0  0  0  0  0  0  0  0  0  0
   48.8806   39.4283   15.7661 C   0  0  0  0  0  0  0  0  0  0  0  0
   43.7077   35.7575   13.8498 N   0  0  0  0  0  0  0  0  0  0  0  0
   48.3815   36.9793   16.0089 N   0  0  0  0  0  0  0  0  0  0  0  0
   47.6287   43.2123   16.7301 O   0  0  0  0  0  0  0  0  0  0  0  0
   48.1869   36.0383   18.4112 O   0  0  0  0  0  0  0  0  0  0  0  0
   48.1925   34.4572   16.4474 O   0  0  0  0  0  0  0  0  0  0  0  0
   45.4682   42.5031   16.6009 O   0  0  0  0  0  0  0  0  0  0  0  0
   48.5356   40.6709   16.3830 O   0  0  0  0  0  0  0  0  0  0  0  0
   47.8218   35.7336   17.0374 S   0  0  0  0  0  0  0  0  0  0  0  0
   42.7261   33.2677   12.0083 H   0  0  0  0  0  0  0  0  0  0  0  0
   43.6522   34.5627   11.2326 H   0  0  0  0  0  0  0  0  0  0  0  0
   41.9674   36.0398   11.5811 H   0  0  0  0  0  0  0  0  0  0  0  0
   40.9867   34.7881   12.3613 H   0  0  0  0  0  0  0  0  0  0  0  0
   43.6991   33.6431   14.1068 H   0  0  0  0  0  0  0  0  0  0  0  0
   45.0441   34.2643   13.1194 H   0  0  0  0  0  0  0  0  0  0  0  0
   41.9475   36.9587   13.7595 H   0  0  0  0  0  0  0  0  0  0  0  0
   41.7224   35.3614   14.5129 H   0  0  0  0  0  0  0  0  0  0  0  0
   47.7824   39.8660   13.9374 H   0  0  0  0  0  0  0  0  0  0  0  0
   49.4723   40.4194   13.9095 H   0  0  0  0  0  0  0  0  0  0  0  0
   49.0736   38.6975   13.7231 H   0  0  0  0  0  0  0  0  0  0  0  0
   50.3973   38.9444   17.2586 H   0  0  0  0  0  0  0  0  0  0  0  0
   50.9947   39.9107   15.9270 H   0  0  0  0  0  0  0  0  0  0  0  0
   50.6718   38.1818   15.6749 H   0  0  0  0  0  0  0  0  0  0  0  0
   46.7172   40.5120   15.4630 H   0  0  0  0  0  0  0  0  0  0  0  0
   46.7132   40.2716   17.2406 H   0  0  0  0  0  0  0  0  0  0  0  0
   46.1534   36.4658   14.7930 H   0  0  0  0  0  0  0  0  0  0  0  0
   45.9387   34.7421   15.0707 H   0  0  0  0  0  0  0  0  0  0  0  0
   43.5743   35.1866   15.8472 H   0  0  0  0  0  0  0  0  0  0  0  0
   43.8314   36.9177   15.5603 H   0  0  0  0  0  0  0  0  0  0  0  0
   47.6586   38.4399   17.2771 H   0  0  0  0  0  0  0  0  0  0  0  0
   46.9395   38.4356   15.6517 H   0  0  0  0  0  0  0  0  0  0  0  0
   45.8256   36.9201   17.2374 H   0  0  0  0  0  0  0  0  0  0  0  0
   45.6157   35.1776   17.5311 H   0  0  0  0  0  0  0  0  0  0  0  0
   48.5381   36.7312   15.0234 H   0  0  0  0  0  0  0  0  0  0  0  0
   45.2321   43.4480   16.7191 H   0  0  0  0  0  0  0  0  0  0  0  0
  1  8  1  0  0  0  0
  1 16  2  0  0  0  0
  1 19  1  0  0  0  0
  2  3  1  0  0  0  0
  2  4  1  0  0  0  0
  3  5  1  0  0  0  0
  4 14  1  0  0  0  0
  5 14  1  0  0  0  0
  6 13  1  0  0  0  0
  7 13  1  0  0  0  0
  8 20  1  0  0  0  0
  9 10  1  0  0  0  0
  9 12  1  0  0  0  0
 10 14  1  0  0  0  0
 11 13  1  0  0  0  0
 11 15  1  0  0  0  0
 12 21  1  0  0  0  0
 13 20  1  0  0  0  0
 15 21  1  0  0  0  0
 17 21  2  0  0  0  0
 18 21  2  0  0  0  0
  2 22  1  0  0  0  0
  2 23  1  0  0  0  0
  3 24  1  0  0  0  0
  3 25  1  0  0  0  0
  4 26  1  0  0  0  0
  4 27  1  0  0  0  0
  5 28  1  0  0  0  0
  5 29  1  0  0  0  0
  6 30  1  0  0  0  0
  6 31  1  0  0  0  0
  6 32  1  0  0  0  0
  7 33  1  0  0  0  0
  7 34  1  0  0  0  0
  7 35  1  0  0  0  0
  8 36  1  0  0  0  0
  8 37  1  0  0  0  0
  9 38  1  0  0  0  0
  9 39  1  0  0  0  0
 10 40  1  0  0  0  0
 10 41  1  0  0  0  0
 11 42  1  0  0  0  0
 11 43  1  0  0  0  0
 12 44  1  0  0  0  0
 12 45  1  0  0  0  0
 15 46  1  0  0  0  0
 19 47  1  0  0  0  0
M  END
> <Chemgauss4 Score>
-5.025249004364

> <Number of Confs>
200

> <og_smiles_field>
CC(C)(CNS(=O)(=O)CCCN1CCCC1)OCC(=O)O

$$$$

  -OEChem-03232314423D

 33 35  0     0  0  0  0  0  0999 V2000
   40.5899   32.2176   12.6778 C   0  0  0  0  0  0  0  0  0  0  0  0
   41.8864   32.0241   12.2465 C   0  0  0  0  0  0  0  0  0  0  0  0
   40.4422   33.0434   13.7735 C   0  0  0  0  0  0  0  0  0  0  0  0
   42.6882   33.3728   13.8912 C   0  0  0  0  0  0  0  0  0  0  0  0
   43.7729   34.8265   15.6332 C   0  0  0  0  0  0  0  0  0  0  0  0
   46.0703   36.0571   14.9826 C   0  0  0  0  0  0  0  0  0  0  0  0
   45.3940   36.5609   16.8883 C   0  0  0  0  0  0  0  0  0  0  0  0
   47.2452   34.9483   16.8319 C   0  0  0  0  0  0  0  0  0  0  0  0
   45.1770   35.2635   16.0148 C   0  0  0  0  0  0  0  0  0  0  0  0
   46.8260   36.3304   16.3180 C   0  0  0  0  0  0  0  0  0  0  0  0
   37.0230   34.1916   13.7936 C   0  0  0  0  0  0  0  0  0  0  0  0
   38.1162   33.2551   13.3252 C   0  0  0  0  0  0  0  0  0  0  0  0
   42.9631   32.5883   12.8318 N   0  0  0  0  0  0  0  0  0  0  0  0
   41.4733   33.6396   14.4073 N   0  0  0  0  0  0  0  0  0  0  0  0
   43.7940   33.9818   14.5306 N   0  0  0  0  0  0  0  0  0  0  0  0
   42.7994   35.2133   16.2716 O   0  0  0  0  0  0  0  0  0  0  0  0
   46.0244   34.2261   16.5898 O   0  0  0  0  0  0  0  0  0  0  0  0
   39.1858   33.2854   14.2629 O   0  0  0  0  0  0  0  0  0  0  0  0
   47.7604   37.2845   16.3974 F   0  0  0  0  0  0  0  0  0  0  0  0
   39.7487   31.7495   12.1833 H   0  0  0  0  0  0  0  0  0  0  0  0
   42.1017   31.3909   11.3924 H   0  0  0  0  0  0  0  0  0  0  0  0
   46.6048   35.4502   14.2458 H   0  0  0  0  0  0  0  0  0  0  0  0
   45.6163   36.9195   14.4829 H   0  0  0  0  0  0  0  0  0  0  0  0
   44.8743   37.4723   16.5736 H   0  0  0  0  0  0  0  0  0  0  0  0
   45.2833   36.4346   17.9692 H   0  0  0  0  0  0  0  0  0  0  0  0
   48.0603   34.5087   16.2509 H   0  0  0  0  0  0  0  0  0  0  0  0
   47.4752   34.9446   17.9007 H   0  0  0  0  0  0  0  0  0  0  0  0
   36.6391   33.8855   14.7707 H   0  0  0  0  0  0  0  0  0  0  0  0
   37.3987   35.2175   13.8669 H   0  0  0  0  0  0  0  0  0  0  0  0
   36.1946   34.2065   13.0775 H   0  0  0  0  0  0  0  0  0  0  0  0
   38.4957   33.5668   12.3475 H   0  0  0  0  0  0  0  0  0  0  0  0
   37.7394   32.2304   13.2533 H   0  0  0  0  0  0  0  0  0  0  0  0
   44.7034   33.7675   14.1268 H   0  0  0  0  0  0  0  0  0  0  0  0
  1  2  1  0  0  0  0
  1  3  2  0  0  0  0
  2 13  2  0  0  0  0
  3 14  1  0  0  0  0
  3 18  1  0  0  0  0
  4 13  1  0  0  0  0
  4 14  2  0  0  0  0
  4 15  1  0  0  0  0
  5  9  1  0  0  0  0
  5 15  1  0  0  0  0
  5 16  2  0  0  0  0
  6  9  1  0  0  0  0
  6 10  1  0  0  0  0
  7  9  1  0  0  0  0
  7 10  1  0  0  0  0
  8 10  1  0  0  0  0
  8 17  1  0  0  0  0
  9 17  1  0  0  0  0
 10 19  1  0  0  0  0
 11 12  1  0  0  0  0
 12 18  1  0  0  0  0
  1 20  1  0  0  0  0
  2 21  1  0  0  0  0
  6 22  1  0  0  0  0
  6 23  1  0  0  0  0
  7 24  1  0  0  0  0
  7 25  1  0  0  0  0
  8 26  1  0  0  0  0
  8 27  1  0  0  0  0
 11 28  1  0  0  0  0
 11 29  1  0  0  0  0
 11 30  1  0  0  0  0
 12 31  1  0  0  0  0
 12 32  1  0  0  0  0
 15 33  1  0  0  0  0
M  END
> <Chemgauss4 Score>
-5.125559329987

> <Number of Confs>
58

> <og_smiles_field>
CCOC1=CC=NC(NC(=O)C23CC(F)(CO2)C3)=N1

$$$$

  -OEChem-03232314423D

 44 45  0     1  0  0  0  0  0999 V2000
   41.5126   33.6304   14.5228 C   0  0  0  0  0  0  0  0  0  0  0  0
   43.2469   34.8023   15.9357 C   0  0  0  0  0  0  0  0  0  0  0  0
   45.6086   37.0111   15.4551 C   0  0  0  0  0  0  0  0  0  0  0  0
   46.6462   36.5180   14.4464 C   0  0  0  0  0  0  0  0  0  0  0  0
   47.7429   35.1516   16.2921 C   0  0  0  0  0  0  0  0  0  0  0  0
   46.6272   35.5459   17.2805 C   0  0  2  0  0  0  0  0  0  0  0  0
   45.3382   35.9921   16.5654 C   0  0  2  0  0  0  0  0  0  0  0  0
   47.9845   36.1030   15.0936 C   0  0  0  0  0  0  0  0  0  0  0  0
   48.8283   35.3505   14.0409 C   0  0  0  0  0  0  0  0  0  0  0  0
   48.7919   37.3475   15.5073 C   0  0  0  0  0  0  0  0  0  0  0  0
   38.2546   32.9676   13.6461 C   0  0  0  0  0  0  0  0  0  0  0  0
   42.7736   33.4930   15.3342 C   0  0  0  0  0  0  0  0  0  0  0  0
   47.0816   36.5830   18.3123 C   0  0  0  0  0  0  0  0  0  0  0  0
   41.4079   34.4605   13.4465 N   0  0  0  0  0  0  0  0  0  0  0  0
   40.4005   32.9409   14.7895 N   0  0  0  0  0  0  0  0  0  0  0  0
   40.1720   34.3090   12.9869 N   0  0  0  0  0  0  0  0  0  0  0  0
   39.6162   33.4067   13.8074 N   0  0  0  0  0  0  0  0  0  0  0  0
   46.2018   36.5607   19.4295 N   0  0  0  0  0  0  0  0  0  0  0  0
   44.6301   34.8476   16.0290 N   0  0  0  0  0  0  0  0  0  0  0  0
   42.4868   35.7011   16.2869 O   0  0  0  0  0  0  0  0  0  0  0  0
   45.9679   37.9531   15.8970 H   0  0  0  0  0  0  0  0  0  0  0  0
   44.6729   37.2587   14.9318 H   0  0  0  0  0  0  0  0  0  0  0  0
   46.2238   35.6800   13.8768 H   0  0  0  0  0  0  0  0  0  0  0  0
   46.8263   37.3224   13.7197 H   0  0  0  0  0  0  0  0  0  0  0  0
   48.6927   35.0518   16.8622 H   0  0  0  0  0  0  0  0  0  0  0  0
   47.5430   34.1267   15.9106 H   0  0  0  0  0  0  0  0  0  0  0  0
   46.3650   34.6202   17.8770 H   0  0  0  0  0  0  0  0  0  0  0  0
   44.6578   36.4401   17.3024 H   0  0  0  0  0  0  0  0  0  0  0  0
   49.7713   35.0546   14.4866 H   0  0  0  0  0  0  0  0  0  0  0  0
   49.0107   36.0061   13.1969 H   0  0  0  0  0  0  0  0  0  0  0  0
   48.2853   34.4713   13.7125 H   0  0  0  0  0  0  0  0  0  0  0  0
   49.7258   37.0315   15.9586 H   0  0  0  0  0  0  0  0  0  0  0  0
   48.2153   37.9239   16.2221 H   0  0  0  0  0  0  0  0  0  0  0  0
   48.9938   37.9488   14.6280 H   0  0  0  0  0  0  0  0  0  0  0  0
   37.6139   33.6337   14.2299 H   0  0  0  0  0  0  0  0  0  0  0  0
   37.9825   33.0062   12.5876 H   0  0  0  0  0  0  0  0  0  0  0  0
   38.1624   31.9377   14.0021 H   0  0  0  0  0  0  0  0  0  0  0  0
   42.6129   32.7696   16.1436 H   0  0  0  0  0  0  0  0  0  0  0  0
   43.5760   33.0856   14.7061 H   0  0  0  0  0  0  0  0  0  0  0  0
   48.0918   36.3131   18.6094 H   0  0  0  0  0  0  0  0  0  0  0  0
   47.0579   37.5517   17.8198 H   0  0  0  0  0  0  0  0  0  0  0  0
   45.7948   37.4688   19.5711 H   0  0  0  0  0  0  0  0  0  0  0  0
   45.4623   35.8973   19.2772 H   0  0  0  0  0  0  0  0  0  0  0  0
   45.1673   34.0476   15.7090 H   0  0  0  0  0  0  0  0  0  0  0  0
  1 12  1  0  0  0  0
  1 14  1  0  0  0  0
  1 15  2  0  0  0  0
  2 12  1  0  0  0  0
  2 19  1  0  0  0  0
  2 20  2  0  0  0  0
  3  4  1  0  0  0  0
  3  7  1  0  0  0  0
  4  8  1  0  0  0  0
  5  6  1  0  0  0  0
  5  8  1  0  0  0  0
  6  7  1  0  0  0  0
  6 13  1  0  0  0  0
  7 19  1  0  0  0  0
  8  9  1  0  0  0  0
  8 10  1  0  0  0  0
 11 17  1  0  0  0  0
 13 18  1  0  0  0  0
 14 16  2  0  0  0  0
 15 17  1  0  0  0  0
 16 17  1  0  0  0  0
  3 21  1  0  0  0  0
  3 22  1  0  0  0  0
  4 23  1  0  0  0  0
  4 24  1  0  0  0  0
  5 25  1  0  0  0  0
  5 26  1  0  0  0  0
  6 27  1  0  0  0  0
  7 28  1  0  0  0  0
  9 29  1  0  0  0  0
  9 30  1  0  0  0  0
  9 31  1  0  0  0  0
 10 32  1  0  0  0  0
 10 33  1  0  0  0  0
 10 34  1  0  0  0  0
 11 35  1  0  0  0  0
 11 36  1  0  0  0  0
 11 37  1  0  0  0  0
 12 38  1  0  0  0  0
 12 39  1  0  0  0  0
 13 40  1  0  0  0  0
 13 41  1  0  0  0  0
 18 42  1  0  0  0  0
 18 43  1  0  0  0  0
 19 44  1  0  0  0  0
M  END
> <Chemgauss4 Score>
-6.404639720917

> <Number of Confs>
200

> <og_smiles_field>
CN1N=NC(CC(=O)NC2CCC(C)(C)CC2CN)=N1

$$$$

  -OEChem-03232314423D

 51 52  0     1  0  0  0  0  0999 V2000
   41.6052   33.0686   13.4751 C   0  0  0  0  0  0  0  0  0  0  0  0
   40.2714   32.9626   13.1705 C   0  0  0  0  0  0  0  0  0  0  0  0
   49.6670   38.3615   17.2108 C   0  0  0  0  0  0  0  0  0  0  0  0
   42.2276   33.9527   14.4941 C   0  0  0  0  0  0  0  0  0  0  0  0
   47.1151   36.0554   16.7915 C   0  0  0  0  0  0  0  0  0  0  0  0
   48.4985   38.0672   16.3479 C   0  0  0  0  0  0  0  0  0  0  0  0
   47.6439   37.3375   17.3599 C   0  0  1  0  0  0  0  0  0  0  0  0
   46.5137   38.1822   17.9310 C   0  0  0  0  0  0  0  0  0  0  0  0
   51.4262   38.7418   15.5022 C   0  0  0  0  0  0  0  0  0  0  0  0
   50.2031   40.6910   16.5137 C   0  0  0  0  0  0  0  0  0  0  0  0
   44.4223   33.8947   16.8928 C   0  0  0  0  0  0  0  0  0  0  0  0
   45.9967   37.4405   15.0375 C   0  0  0  0  0  0  0  0  0  0  0  0
   45.7331   34.9894   14.9985 C   0  0  0  0  0  0  0  0  0  0  0  0
   50.7486   39.2840   16.7599 C   0  0  0  0  0  0  0  0  0  0  0  0
   44.3544   34.6464   15.5671 C   0  0  1  0  0  0  0  0  0  0  0  0
   39.0610   33.6187   13.6843 C   0  0  0  0  0  0  0  0  0  0  0  0
   42.3261   32.2168   12.6850 N   0  0  0  0  0  0  0  0  0  0  0  0
   41.4745   31.5785   11.8898 N   0  0  0  0  0  0  0  0  0  0  0  0
   49.6951   37.7479   18.3469 N   0  0  0  0  0  0  0  0  0  0  0  0
   40.2431   32.0272   12.1823 N   0  0  0  0  0  0  0  0  0  0  0  0
   43.6045   33.8668   14.6034 N   0  0  0  0  0  0  0  0  0  0  0  0
   46.3134   36.1586   15.6541 N   0  0  0  0  0  0  0  0  0  0  0  0
   41.5098   34.6760   15.1796 O   0  0  0  0  0  0  0  0  0  0  0  0
   47.4044   34.9890   17.3407 O   0  0  0  0  0  0  0  0  0  0  0  0
   48.5281   36.9512   18.4191 O   0  0  0  0  0  0  0  0  0  0  0  0
   39.2908   34.5366   14.6818 F   0  0  0  0  0  0  0  0  0  0  0  0
   38.3499   34.3202   12.7397 F   0  0  0  0  0  0  0  0  0  0  0  0
   38.1507   32.7427   14.2231 F   0  0  0  0  0  0  0  0  0  0  0  0
   48.0433   38.9835   15.9637 H   0  0  0  0  0  0  0  0  0  0  0  0
   48.8226   37.4422   15.5098 H   0  0  0  0  0  0  0  0  0  0  0  0
   46.9112   39.1113   18.3409 H   0  0  0  0  0  0  0  0  0  0  0  0
   46.0032   37.6364   18.7251 H   0  0  0  0  0  0  0  0  0  0  0  0
   45.7933   38.4219   17.1481 H   0  0  0  0  0  0  0  0  0  0  0  0
   50.7178   38.6571   14.6704 H   0  0  0  0  0  0  0  0  0  0  0  0
   51.8508   37.7483   15.6843 H   0  0  0  0  0  0  0  0  0  0  0  0
   52.2423   39.3991   15.1833 H   0  0  0  0  0  0  0  0  0  0  0  0
   49.4446   40.6832   15.7230 H   0  0  0  0  0  0  0  0  0  0  0  0
   50.9976   41.3824   16.2105 H   0  0  0  0  0  0  0  0  0  0  0  0
   49.7358   41.0924   17.4194 H   0  0  0  0  0  0  0  0  0  0  0  0
   44.9540   32.9418   16.7962 H   0  0  0  0  0  0  0  0  0  0  0  0
   44.9561   34.4879   17.6437 H   0  0  0  0  0  0  0  0  0  0  0  0
   43.4176   33.6899   17.2766 H   0  0  0  0  0  0  0  0  0  0  0  0
   46.7583   37.6825   14.2816 H   0  0  0  0  0  0  0  0  0  0  0  0
   45.0090   37.3819   14.5568 H   0  0  0  0  0  0  0  0  0  0  0  0
   45.9833   38.2248   15.8086 H   0  0  0  0  0  0  0  0  0  0  0  0
   45.6566   35.1931   13.9245 H   0  0  0  0  0  0  0  0  0  0  0  0
   46.4122   34.1386   15.1213 H   0  0  0  0  0  0  0  0  0  0  0  0
   51.5012   39.3479   17.5574 H   0  0  0  0  0  0  0  0  0  0  0  0
   43.8125   35.5843   15.7362 H   0  0  0  0  0  0  0  0  0  0  0  0
   39.4500   31.6540   11.6745 H   0  0  0  0  0  0  0  0  0  0  0  0
   44.1272   33.2005   14.0470 H   0  0  0  0  0  0  0  0  0  0  0  0
  1  2  2  0  0  0  0
  1  4  1  0  0  0  0
  1 17  1  0  0  0  0
  2 16  1  0  0  0  0
  2 20  1  0  0  0  0
  3  6  1  0  0  0  0
  3 14  1  0  0  0  0
  3 19  2  0  0  0  0
  4 21  1  0  0  0  0
  4 23  2  0  0  0  0
  5  7  1  0  0  0  0
  5 22  1  0  0  0  0
  5 24  2  0  0  0  0
  6  7  1  0  0  0  0
  7  8  1  0  0  0  0
  7 25  1  0  0  0  0
  9 14  1  0  0  0  0
 10 14  1  0  0  0  0
 11 15  1  0  0  0  0
 12 22  1  0  0  0  0
 13 15  1  0  0  0  0
 13 22  1  0  0  0  0
 15 21  1  0  0  0  0
 16 26  1  0  0  0  0
 16 27  1  0  0  0  0
 16 28  1  0  0  0  0
 17 18  2  0  0  0  0
 18 20  1  0  0  0  0
 19 25  1  0  0  0  0
  6 29  1  0  0  0  0
  6 30  1  0  0  0  0
  8 31  1  0  0  0  0
  8 32  1  0  0  0  0
  8 33  1  0  0  0  0
  9 34  1  0  0  0  0
  9 35  1  0  0  0  0
  9 36  1  0  0  0  0
 10 37  1  0  0  0  0
 10 38  1  0  0  0  0
 10 39  1  0  0  0  0
 11 40  1  0  0  0  0
 11 41  1  0  0  0  0
 11 42  1  0  0  0  0
 12 43  1  0  0  0  0
 12 44  1  0  0  0  0
 12 45  1  0  0  0  0
 13 46  1  0  0  0  0
 13 47  1  0  0  0  0
 14 48  1  0  0  0  0
 15 49  1  0  0  0  0
 20 50  1  0  0  0  0
 21 51  1  0  0  0  0
M  END
> <Chemgauss4 Score>
-4.715116024017

> <Number of Confs>
200

> <og_smiles_field>
CC(C)C1=NOC(C)(C(=O)N(C)C[C@H](C)NC(=O)C2=C(C(F)(F)F)NN=N2)C1

$$$$

  -OEChem-03232314423D

 53 56  0     1  0  0  0  0  0999 V2000
   41.4676   37.2498   11.7266 C   0  0  0  0  0  0  0  0  0  0  0  0
   50.7865   40.1491   16.3634 C   0  0  0  0  0  0  0  0  0  0  0  0
   49.5366   39.9286   15.7851 C   0  0  0  0  0  0  0  0  0  0  0  0
   51.7633   39.1545   16.3135 C   0  0  0  0  0  0  0  0  0  0  0  0
   49.2633   38.7136   15.1569 C   0  0  0  0  0  0  0  0  0  0  0  0
   51.4900   37.9395   15.6853 C   0  0  0  0  0  0  0  0  0  0  0  0
   42.2664   36.0194   13.8079 C   0  0  0  0  0  0  0  0  0  0  0  0
   41.9876   34.8267   11.9186 C   0  0  0  0  0  0  0  0  0  0  0  0
   41.8846   36.0951   12.4457 C   0  0  0  0  0  0  0  0  0  0  0  0
   50.2400   37.7190   15.1070 C   0  0  0  0  0  0  0  0  0  0  0  0
   42.5913   34.7070   14.0717 C   0  0  0  0  0  0  0  0  0  0  0  0
   43.0465   34.1343   15.3497 C   0  0  0  0  0  0  0  0  0  0  0  0
   49.3577   35.3840   15.4087 C   0  0  0  0  0  0  0  0  0  0  0  0
   47.7494   35.3830   18.3505 C   0  0  0  0  0  0  0  0  0  0  0  0
   44.9097   34.2695   17.0919 C   0  0  0  0  0  0  0  0  0  0  0  0
   45.2587   35.5022   15.3648 C   0  0  0  0  0  0  0  0  0  0  0  0
   47.2206   36.7820   18.6338 C   0  0  0  0  0  0  0  0  0  0  0  0
   47.3956   35.0292   16.9103 C   0  0  1  0  0  0  0  0  0  0  0  0
   45.9269   35.3864   16.7532 C   0  0  0  0  0  0  0  0  0  0  0  0
   49.0227   36.5939   13.2169 C   0  0  0  0  0  0  0  0  0  0  0  0
   42.6494   32.5724   12.7560 C   0  0  0  0  0  0  0  0  0  0  0  0
   49.9432   36.3964   14.4238 C   0  0  1  0  0  0  0  0  0  0  0  0
   41.1273   38.1916   11.1401 N   0  0  0  0  0  0  0  0  0  0  0  0
   42.4183   33.9912   12.9159 N   0  0  0  0  0  0  0  0  0  0  0  0
   44.2067   34.6409   15.8754 N   0  0  0  0  0  0  0  0  0  0  0  0
   48.1514   35.8092   15.9608 N   0  0  0  0  0  0  0  0  0  0  0  0
   42.3815   33.2341   15.8557 O   0  0  0  0  0  0  0  0  0  0  0  0
   49.9042   34.3133   15.6652 O   0  0  0  0  0  0  0  0  0  0  0  0
   45.5946   36.8856   17.8203 S   0  0  0  0  0  0  0  0  0  0  0  0
   50.9996   41.0958   16.8513 H   0  0  0  0  0  0  0  0  0  0  0  0
   48.7762   40.7033   15.8229 H   0  0  0  0  0  0  0  0  0  0  0  0
   52.7370   39.3263   16.7627 H   0  0  0  0  0  0  0  0  0  0  0  0
   48.2864   38.5505   14.7092 H   0  0  0  0  0  0  0  0  0  0  0  0
   52.2571   37.1703   15.6514 H   0  0  0  0  0  0  0  0  0  0  0  0
   42.3014   36.8327   14.5209 H   0  0  0  0  0  0  0  0  0  0  0  0
   41.7924   34.4479   10.9235 H   0  0  0  0  0  0  0  0  0  0  0  0
   48.8445   35.3625   18.5027 H   0  0  0  0  0  0  0  0  0  0  0  0
   47.3220   34.6558   19.0615 H   0  0  0  0  0  0  0  0  0  0  0  0
   45.3050   33.2481   17.0708 H   0  0  0  0  0  0  0  0  0  0  0  0
   44.2876   34.4030   17.9844 H   0  0  0  0  0  0  0  0  0  0  0  0
   44.8664   36.4852   15.0632 H   0  0  0  0  0  0  0  0  0  0  0  0
   45.8168   35.0745   14.5207 H   0  0  0  0  0  0  0  0  0  0  0  0
   47.0835   36.9361   19.7092 H   0  0  0  0  0  0  0  0  0  0  0  0
   47.8941   37.5544   18.2515 H   0  0  0  0  0  0  0  0  0  0  0  0
   47.5846   33.9853   16.7027 H   0  0  0  0  0  0  0  0  0  0  0  0
   48.0548   37.0226   13.5003 H   0  0  0  0  0  0  0  0  0  0  0  0
   49.4807   37.2628   12.4799 H   0  0  0  0  0  0  0  0  0  0  0  0
   48.8224   35.6353   12.7254 H   0  0  0  0  0  0  0  0  0  0  0  0
   43.6901   32.4323   12.4522 H   0  0  0  0  0  0  0  0  0  0  0  0
   42.4559   32.0629   13.7040 H   0  0  0  0  0  0  0  0  0  0  0  0
   41.9712   32.1795   11.9933 H   0  0  0  0  0  0  0  0  0  0  0  0
   50.8803   35.9663   14.0436 H   0  0  0  0  0  0  0  0  0  0  0  0
   47.7839   36.7182   15.6793 H   0  0  0  0  0  0  0  0  0  0  0  0
  1  9  1  0  0  0  0
  1 23  3  0  0  0  0
  2  3  2  0  0  0  0
  2  4  1  0  0  0  0
  3  5  1  0  0  0  0
  4  6  2  0  0  0  0
  5 10  2  0  0  0  0
  6 10  1  0  0  0  0
  7  9  1  0  0  0  0
  7 11  2  0  0  0  0
  8  9  2  0  0  0  0
  8 24  1  0  0  0  0
 10 22  1  0  0  0  0
 11 12  1  0  0  0  0
 11 24  1  0  0  0  0
 12 25  1  0  0  0  0
 12 27  2  0  0  0  0
 13 22  1  0  0  0  0
 13 26  1  0  0  0  0
 13 28  2  0  0  0  0
 14 17  1  0  0  0  0
 14 18  1  0  0  0  0
 15 19  1  0  0  0  0
 15 25  1  0  0  0  0
 16 19  1  0  0  0  0
 16 25  1  0  0  0  0
 17 29  1  0  0  0  0
 18 19  1  0  0  0  0
 18 26  1  0  0  0  0
 19 29  1  0  0  0  0
 20 22  1  0  0  0  0
 21 24  1  0  0  0  0
  2 30  1  0  0  0  0
  3 31  1  0  0  0  0
  4 32  1  0  0  0  0
  5 33  1  0  0  0  0
  6 34  1  0  0  0  0
  7 35  1  0  0  0  0
  8 36  1  0  0  0  0
 14 37  1  0  0  0  0
 14 38  1  0  0  0  0
 15 39  1  0  0  0  0
 15 40  1  0  0  0  0
 16 41  1  0  0  0  0
 16 42  1  0  0  0  0
 17 43  1  0  0  0  0
 17 44  1  0  0  0  0
 18 45  1  0  0  0  0
 20 46  1  0  0  0  0
 20 47  1  0  0  0  0
 20 48  1  0  0  0  0
 21 49  1  0  0  0  0
 21 50  1  0  0  0  0
 21 51  1  0  0  0  0
 22 52  1  0  0  0  0
 26 53  1  0  0  0  0
M  END
> <Chemgauss4 Score>
-5.054267883301

> <Number of Confs>
200

> <og_smiles_field>
CC(C(=O)NC1CCSC12CN(C(=O)C1=CC(C#N)=CN1C)C2)C1=CC=CC=C1

$$$$

  -OEChem-03232314423D

 54 57  0     1  0  0  0  0  0999 V2000
   51.1174   35.7998   14.1916 C   0  0  0  0  0  0  0  0  0  0  0  0
   50.9519   33.9369   13.1754 C   0  0  0  0  0  0  0  0  0  0  0  0
   49.8382   35.3596   14.4373 C   0  0  0  0  0  0  0  0  0  0  0  0
   48.7484   35.9867   15.2287 C   0  0  0  0  0  0  0  0  0  0  0  0
   41.8501   33.2388   14.8741 C   0  0  0  0  0  0  0  0  0  0  0  0
   42.8455   33.5862   11.0254 C   0  0  0  0  0  0  0  0  0  0  0  0
   41.6597   33.8953   11.9323 C   0  0  0  0  0  0  0  0  0  0  0  0
   42.4615   32.2630   10.3642 C   0  0  0  0  0  0  0  0  0  0  0  0
   40.4870   30.6542   10.8759 C   0  0  0  0  0  0  0  0  0  0  0  0
   41.6728   30.0725   11.5791 C   0  0  0  0  0  0  0  0  0  0  0  0
   45.5277   34.6338   16.5302 C   0  0  0  0  0  0  0  0  0  0  0  0
   44.0486   36.0766   15.3395 C   0  0  0  0  0  0  0  0  0  0  0  0
   41.2734   32.5267   12.5208 C   0  0  1  0  0  0  0  0  0  0  0  0
   44.1495   35.2789   16.6409 C   0  0  1  0  0  0  0  0  0  0  0  0
   46.3974   35.7695   15.9943 C   0  0  2  0  0  0  0  0  0  0  0  0
   45.4687   36.5965   15.0918 C   0  0  2  0  0  0  0  0  0  0  0  0
   41.5815   31.5704   11.3808 C   0  0  0  0  0  0  0  0  0  0  0  0
   42.0806   32.2177   13.7806 C   0  0  0  0  0  0  0  0  0  0  0  0
   43.0281   34.2689   16.8118 C   0  0  0  0  0  0  0  0  0  0  0  0
   51.8054   34.9099   13.4053 N   0  0  0  0  0  0  0  0  0  0  0  0
   49.7468   34.1654   13.7795 N   0  0  0  0  0  0  0  0  0  0  0  0
   47.5515   35.2819   15.2884 N   0  0  0  0  0  0  0  0  0  0  0  0
   42.9668   33.3627   15.6879 N   0  0  0  0  0  0  0  0  0  0  0  0
   48.9437   37.0764   15.7605 O   0  0  0  0  0  0  0  0  0  0  0  0
   40.8033   33.8674   15.0051 O   0  0  0  0  0  0  0  0  0  0  0  0
   45.5575   37.9745   15.4373 O   0  0  0  0  0  0  0  0  0  0  0  0
   51.5812   36.7120   14.5389 H   0  0  0  0  0  0  0  0  0  0  0  0
   51.1399   33.0507   12.5858 H   0  0  0  0  0  0  0  0  0  0  0  0
   43.0298   34.3760   10.2913 H   0  0  0  0  0  0  0  0  0  0  0  0
   43.7563   33.4605   11.6224 H   0  0  0  0  0  0  0  0  0  0  0  0
   41.8984   34.6437   12.6940 H   0  0  0  0  0  0  0  0  0  0  0  0
   40.8311   34.2825   11.3259 H   0  0  0  0  0  0  0  0  0  0  0  0
   41.8991   32.4562    9.4434 H   0  0  0  0  0  0  0  0  0  0  0  0
   43.3517   31.6787   10.1102 H   0  0  0  0  0  0  0  0  0  0  0  0
   40.4034   30.4813    9.8096 H   0  0  0  0  0  0  0  0  0  0  0  0
   39.5382   30.6400   11.3989 H   0  0  0  0  0  0  0  0  0  0  0  0
   41.5056   29.6545   12.5636 H   0  0  0  0  0  0  0  0  0  0  0  0
   42.3883   29.5181   10.9834 H   0  0  0  0  0  0  0  0  0  0  0  0
   45.8884   34.2602   17.4940 H   0  0  0  0  0  0  0  0  0  0  0  0
   45.5021   33.7915   15.8265 H   0  0  0  0  0  0  0  0  0  0  0  0
   43.7580   35.4117   14.5165 H   0  0  0  0  0  0  0  0  0  0  0  0
   43.3048   36.8765   15.4135 H   0  0  0  0  0  0  0  0  0  0  0  0
   40.2071   32.5268   12.7749 H   0  0  0  0  0  0  0  0  0  0  0  0
   44.1315   35.9657   17.4941 H   0  0  0  0  0  0  0  0  0  0  0  0
   46.7731   36.3777   16.8221 H   0  0  0  0  0  0  0  0  0  0  0  0
   45.7185   36.5060   14.0234 H   0  0  0  0  0  0  0  0  0  0  0  0
   43.1438   32.2026   13.5289 H   0  0  0  0  0  0  0  0  0  0  0  0
   41.7982   31.2299   14.1524 H   0  0  0  0  0  0  0  0  0  0  0  0
   43.2033   33.6900   17.7306 H   0  0  0  0  0  0  0  0  0  0  0  0
   42.0712   34.8052   16.8932 H   0  0  0  0  0  0  0  0  0  0  0  0
   48.9381   33.5589   13.7456 H   0  0  0  0  0  0  0  0  0  0  0  0
   47.4506   34.4131   14.7665 H   0  0  0  0  0  0  0  0  0  0  0  0
   43.7800   32.7892   15.4839 H   0  0  0  0  0  0  0  0  0  0  0  0
   44.9213   38.4442   14.8748 H   0  0  0  0  0  0  0  0  0  0  0  0
  1  3  2  0  0  0  0
  1 20  1  0  0  0  0
  2 20  2  0  0  0  0
  2 21  1  0  0  0  0
  3  4  1  0  0  0  0
  3 21  1  0  0  0  0
  4 22  1  0  0  0  0
  4 24  2  0  0  0  0
  5 18  1  0  0  0  0
  5 23  1  0  0  0  0
  5 25  2  0  0  0  0
  6  7  1  0  0  0  0
  6  8  1  0  0  0  0
  7 13  1  0  0  0  0
  8 17  1  0  0  0  0
  9 10  1  0  0  0  0
  9 17  1  0  0  0  0
 10 17  1  0  0  0  0
 11 14  1  0  0  0  0
 11 15  1  0  0  0  0
 12 14  1  0  0  0  0
 12 16  1  0  0  0  0
 13 17  1  0  0  0  0
 13 18  1  0  0  0  0
 14 19  1  0  0  0  0
 15 16  1  0  0  0  0
 15 22  1  0  0  0  0
 16 26  1  0  0  0  0
 19 23  1  0  0  0  0
  1 27  1  0  0  0  0
  2 28  1  0  0  0  0
  6 29  1  0  0  0  0
  6 30  1  0  0  0  0
  7 31  1  0  0  0  0
  7 32  1  0  0  0  0
  8 33  1  0  0  0  0
  8 34  1  0  0  0  0
  9 35  1  0  0  0  0
  9 36  1  0  0  0  0
 10 37  1  0  0  0  0
 10 38  1  0  0  0  0
 11 39  1  0  0  0  0
 11 40  1  0  0  0  0
 12 41  1  0  0  0  0
 12 42  1  0  0  0  0
 13 43  1  0  0  0  0
 14 44  1  0  0  0  0
 15 45  1  0  0  0  0
 16 46  1  0  0  0  0
 18 47  1  0  0  0  0
 18 48  1  0  0  0  0
 19 49  1  0  0  0  0
 19 50  1  0  0  0  0
 21 51  1  0  0  0  0
 22 52  1  0  0  0  0
 23 53  1  0  0  0  0
 26 54  1  0  0  0  0
M  END
> <Chemgauss4 Score>
-7.919201850891

> <Number of Confs>
200

> <og_smiles_field>
O=C(CC1CCCC12CC2)NC[C@@H]1C[C@@H](O)[C@H](NC(=O)C2=CN=CN2)C1

$$$$

  -OEChem-03232314423D

 39 40  0     1  0  0  0  0  0999 V2000
   45.6913   36.0770   14.2633 C   0  0  0  0  0  0  0  0  0  0  0  0
   46.1699   35.0601   17.1878 C   0  0  0  0  0  0  0  0  0  0  0  0
   47.0296   34.7927   15.9503 C   0  0  0  0  0  0  0  0  0  0  0  0
   43.6490   35.2339   12.0770 C   0  0  0  0  0  0  0  0  0  0  0  0
   43.3736   33.3962   12.9727 C   0  0  0  0  0  0  0  0  0  0  0  0
   46.6041   36.2948   17.9637 C   0  0  0  0  0  0  0  0  0  0  0  0
   47.4764   37.2828   15.5411 C   0  0  0  0  0  0  0  0  0  0  0  0
   47.0367   35.9455   14.9324 C   0  0  2  0  0  0  0  0  0  0  0  0
   43.6915   34.7856   13.5455 C   0  0  0  0  0  0  0  0  0  0  0  0
   49.3140   35.4563   14.3436 C   0  0  0  0  0  0  0  0  0  0  0  0
   47.9059   36.6512   12.8067 C   0  0  0  0  0  0  0  0  0  0  0  0
   42.6281   35.3838   14.4476 C   0  0  0  0  0  0  0  0  0  0  0  0
   44.9996   34.8860   14.1519 N   0  0  0  0  0  0  0  0  0  0  0  0
   47.9543   35.6152   13.8350 N   0  0  0  0  0  0  0  0  0  0  0  0
   45.3123   37.1774   13.8798 O   0  0  0  0  0  0  0  0  0  0  0  0
   43.1103   33.9547   11.6623 O   0  0  0  0  0  0  0  0  0  0  0  0
   42.7839   36.7316   14.4619 F   0  0  0  0  0  0  0  0  0  0  0  0
   46.4594   37.7986   16.9617 S   0  0  0  0  0  0  0  0  0  0  0  0
   45.1136   35.1430   16.9029 H   0  0  0  0  0  0  0  0  0  0  0  0
   46.2385   34.1893   17.8514 H   0  0  0  0  0  0  0  0  0  0  0  0
   48.0566   34.5861   16.2817 H   0  0  0  0  0  0  0  0  0  0  0  0
   46.6670   33.8700   15.4773 H   0  0  0  0  0  0  0  0  0  0  0  0
   42.9628   36.0536   11.8445 H   0  0  0  0  0  0  0  0  0  0  0  0
   44.6147   35.4252   11.5973 H   0  0  0  0  0  0  0  0  0  0  0  0
   44.2030   32.6820   12.9345 H   0  0  0  0  0  0  0  0  0  0  0  0
   42.4896   32.8989   13.3827 H   0  0  0  0  0  0  0  0  0  0  0  0
   45.9740   36.4146   18.8508 H   0  0  0  0  0  0  0  0  0  0  0  0
   47.6387   36.1948   18.3084 H   0  0  0  0  0  0  0  0  0  0  0  0
   48.5171   37.2335   15.8836 H   0  0  0  0  0  0  0  0  0  0  0  0
   47.4218   38.0884   14.7991 H   0  0  0  0  0  0  0  0  0  0  0  0
   49.9906   35.2093   13.5122 H   0  0  0  0  0  0  0  0  0  0  0  0
   49.6408   36.3946   14.8157 H   0  0  0  0  0  0  0  0  0  0  0  0
   49.3351   34.6454   15.0866 H   0  0  0  0  0  0  0  0  0  0  0  0
   48.5972   36.3918   11.9913 H   0  0  0  0  0  0  0  0  0  0  0  0
   46.8827   36.7262   12.4099 H   0  0  0  0  0  0  0  0  0  0  0  0
   48.2011   37.6162   13.2444 H   0  0  0  0  0  0  0  0  0  0  0  0
   42.7301   35.0138   15.4687 H   0  0  0  0  0  0  0  0  0  0  0  0
   41.6285   35.1561   14.0749 H   0  0  0  0  0  0  0  0  0  0  0  0
   45.4310   34.0407   14.5134 H   0  0  0  0  0  0  0  0  0  0  0  0
  1  8  1  0  0  0  0
  1 13  1  0  0  0  0
  1 15  2  0  0  0  0
  2  3  1  0  0  0  0
  2  6  1  0  0  0  0
  3  8  1  0  0  0  0
  4  9  1  0  0  0  0
  4 16  1  0  0  0  0
  5  9  1  0  0  0  0
  5 16  1  0  0  0  0
  6 18  1  0  0  0  0
  7  8  1  0  0  0  0
  7 18  1  0  0  0  0
  8 14  1  0  0  0  0
  9 12  1  0  0  0  0
  9 13  1  0  0  0  0
 10 14  1  0  0  0  0
 11 14  1  0  0  0  0
 12 17  1  0  0  0  0
  2 19  1  0  0  0  0
  2 20  1  0  0  0  0
  3 21  1  0  0  0  0
  3 22  1  0  0  0  0
  4 23  1  0  0  0  0
  4 24  1  0  0  0  0
  5 25  1  0  0  0  0
  5 26  1  0  0  0  0
  6 27  1  0  0  0  0
  6 28  1  0  0  0  0
  7 29  1  0  0  0  0
  7 30  1  0  0  0  0
 10 31  1  0  0  0  0
 10 32  1  0  0  0  0
 10 33  1  0  0  0  0
 11 34  1  0  0  0  0
 11 35  1  0  0  0  0
 11 36  1  0  0  0  0
 12 37  1  0  0  0  0
 12 38  1  0  0  0  0
 13 39  1  0  0  0  0
M  END
> <Chemgauss4 Score>
-4.488434791565

> <Number of Confs>
24

> <og_smiles_field>
CN(C)C1(C(=O)NC2(CF)COC2)CCCSC1

$$$$

  -OEChem-03232314423D

 39 40  0     1  0  0  0  0  0999 V2000
   48.5913   36.4794   15.5508 C   0  0  0  0  0  0  0  0  0  0  0  0
   49.1462   37.7409   15.1891 C   0  0  0  0  0  0  0  0  0  0  0  0
   47.6440   36.5963   16.5440 C   0  0  0  0  0  0  0  0  0  0  0  0
   48.6015   38.7742   15.9197 C   0  0  0  0  0  0  0  0  0  0  0  0
   45.3619   35.1405   15.1759 C   0  0  0  0  0  0  0  0  0  0  0  0
   41.4824   35.5580   13.4331 C   0  0  0  0  0  0  0  0  0  0  0  0
   41.7578   35.8341   14.9086 C   0  0  0  0  0  0  0  0  0  0  0  0
   43.8608   34.7701   13.1634 C   0  0  0  0  0  0  0  0  0  0  0  0
   42.7522   35.6535   12.5801 C   0  0  2  0  0  0  0  0  0  0  0  0
   42.9090   34.9908   15.4729 C   0  0  1  0  0  0  0  0  0  0  0  0
   43.2279   37.1003   12.4203 C   0  0  0  0  0  0  0  0  0  0  0  0
   46.8308   35.5068   17.1997 C   0  0  0  0  0  0  0  0  0  0  0  0
   45.4070   35.3970   16.6613 C   0  0  0  0  0  0  0  0  0  0  0  0
   42.4842   33.5469   15.7565 C   0  0  0  0  0  0  0  0  0  0  0  0
   44.0945   35.0252   14.5943 N   0  0  0  0  0  0  0  0  0  0  0  0
   46.4215   35.0407   14.5513 O   0  0  0  0  0  0  0  0  0  0  0  0
   41.4409   33.5696   16.7107 O   0  0  0  0  0  0  0  0  0  0  0  0
   47.4266   38.2219   17.0364 S   0  0  0  0  0  0  0  0  0  0  0  0
   48.9719   40.4442   15.8151 Cl  0  0  0  0  0  0  0  0  0  0  0  0
   48.8757   35.5359   15.1023 H   0  0  0  0  0  0  0  0  0  0  0  0
   49.9063   37.8769   14.4301 H   0  0  0  0  0  0  0  0  0  0  0  0
   41.0557   34.5528   13.3281 H   0  0  0  0  0  0  0  0  0  0  0  0
   40.7221   36.2561   13.0636 H   0  0  0  0  0  0  0  0  0  0  0  0
   42.0011   36.8963   15.0367 H   0  0  0  0  0  0  0  0  0  0  0  0
   40.8429   35.6614   15.4882 H   0  0  0  0  0  0  0  0  0  0  0  0
   43.5809   33.7136   13.0731 H   0  0  0  0  0  0  0  0  0  0  0  0
   44.7724   34.8947   12.5751 H   0  0  0  0  0  0  0  0  0  0  0  0
   42.5112   35.2796   11.5767 H   0  0  0  0  0  0  0  0  0  0  0  0
   43.1822   35.4293   16.4406 H   0  0  0  0  0  0  0  0  0  0  0  0
   43.4785   37.5120   13.3950 H   0  0  0  0  0  0  0  0  0  0  0  0
   42.4379   37.6966   11.9701 H   0  0  0  0  0  0  0  0  0  0  0  0
   44.1075   37.1268   11.7814 H   0  0  0  0  0  0  0  0  0  0  0  0
   46.8195   35.6498   18.2881 H   0  0  0  0  0  0  0  0  0  0  0  0
   47.3420   34.5495   17.0332 H   0  0  0  0  0  0  0  0  0  0  0  0
   44.8568   34.5987   17.1622 H   0  0  0  0  0  0  0  0  0  0  0  0
   44.8743   36.3319   16.8444 H   0  0  0  0  0  0  0  0  0  0  0  0
   43.3290   32.9882   16.1538 H   0  0  0  0  0  0  0  0  0  0  0  0
   42.1288   33.0827   14.8390 H   0  0  0  0  0  0  0  0  0  0  0  0
   41.1844   32.6461   16.8781 H   0  0  0  0  0  0  0  0  0  0  0  0
  1  2  1  0  0  0  0
  1  3  2  0  0  0  0
  2  4  2  0  0  0  0
  3 12  1  0  0  0  0
  3 18  1  0  0  0  0
  4 18  1  0  0  0  0
  4 19  1  0  0  0  0
  5 13  1  0  0  0  0
  5 15  1  0  0  0  0
  5 16  2  0  0  0  0
  6  7  1  0  0  0  0
  6  9  1  0  0  0  0
  7 10  1  0  0  0  0
  8  9  1  0  0  0  0
  8 15  1  0  0  0  0
  9 11  1  0  0  0  0
 10 14  1  0  0  0  0
 10 15  1  0  0  0  0
 12 13  1  0  0  0  0
 14 17  1  0  0  0  0
  1 20  1  0  0  0  0
  2 21  1  0  0  0  0
  6 22  1  0  0  0  0
  6 23  1  0  0  0  0
  7 24  1  0  0  0  0
  7 25  1  0  0  0  0
  8 26  1  0  0  0  0
  8 27  1  0  0  0  0
  9 28  1  0  0  0  0
 10 29  1  0  0  0  0
 11 30  1  0  0  0  0
 11 31  1  0  0  0  0
 11 32  1  0  0  0  0
 12 33  1  0  0  0  0
 12 34  1  0  0  0  0
 13 35  1  0  0  0  0
 13 36  1  0  0  0  0
 14 37  1  0  0  0  0
 14 38  1  0  0  0  0
 17 39  1  0  0  0  0
M  END
> <Chemgauss4 Score>
-6.795998573303

> <Number of Confs>
200

> <og_smiles_field>
C[C@@H]1CC[C@@H](CO)N(C(=O)CCC2=CC=C(Cl)S2)C1

$$$$

  -OEChem-03232314423D

 40 42  0     0  0  0  0  0  0999 V2000
   45.8704   34.6391   17.5927 C   0  0  0  0  0  0  0  0  0  0  0  0
   44.7309   33.8434   17.4752 C   0  0  0  0  0  0  0  0  0  0  0  0
   45.1119   36.0059   15.7477 C   0  0  0  0  0  0  0  0  0  0  0  0
   41.3863   33.2208   11.6052 C   0  0  0  0  0  0  0  0  0  0  0  0
   43.9695   35.2074   15.6302 C   0  0  0  0  0  0  0  0  0  0  0  0
   46.0604   35.7185   16.7302 C   0  0  0  0  0  0  0  0  0  0  0  0
   43.7815   34.1308   16.4913 C   0  0  0  0  0  0  0  0  0  0  0  0
   40.6289   33.7206   12.6381 C   0  0  0  0  0  0  0  0  0  0  0  0
   39.6875   31.9448   11.7342 C   0  0  0  0  0  0  0  0  0  0  0  0
   42.9546   35.4937   14.5980 C   0  0  0  0  0  0  0  0  0  0  0  0
   41.6458   33.5304   15.4385 C   0  0  0  0  0  0  0  0  0  0  0  0
   38.6895   30.8768   11.5208 C   0  0  0  0  0  0  0  0  0  0  0  0
   37.2046   33.5993   13.0046 C   0  0  0  0  0  0  0  0  0  0  0  0
   40.8382   34.8944   13.5505 C   0  0  0  0  0  0  0  0  0  0  0  0
   38.4465   33.0014   13.6430 C   0  0  0  0  0  0  0  0  0  0  0  0
   47.2807   36.5671   16.8582 C   0  0  0  0  0  0  0  0  0  0  0  0
   40.7947   32.1156   11.0464 N   0  0  0  0  0  0  0  0  0  0  0  0
   39.5437   32.8931   12.7085 N   0  0  0  0  0  0  0  0  0  0  0  0
   42.6416   33.3287   16.3796 N   0  0  0  0  0  0  0  0  0  0  0  0
   41.8484   34.6224   14.5669 N   0  0  0  0  0  0  0  0  0  0  0  0
   43.1164   36.4471   13.8401 O   0  0  0  0  0  0  0  0  0  0  0  0
   40.6629   32.7852   15.3969 O   0  0  0  0  0  0  0  0  0  0  0  0
   48.1204   36.1703   17.8598 F   0  0  0  0  0  0  0  0  0  0  0  0
   48.0533   36.5863   15.7322 F   0  0  0  0  0  0  0  0  0  0  0  0
   46.9862   37.8731   17.1229 F   0  0  0  0  0  0  0  0  0  0  0  0
   46.6059   34.4099   18.3593 H   0  0  0  0  0  0  0  0  0  0  0  0
   44.5947   33.0055   18.1540 H   0  0  0  0  0  0  0  0  0  0  0  0
   45.2732   36.8501   15.0820 H   0  0  0  0  0  0  0  0  0  0  0  0
   42.3277   33.5989   11.2334 H   0  0  0  0  0  0  0  0  0  0  0  0
   38.9263   29.9867   12.1257 H   0  0  0  0  0  0  0  0  0  0  0  0
   37.6710   31.2042   11.7890 H   0  0  0  0  0  0  0  0  0  0  0  0
   38.6412   30.5623   10.4646 H   0  0  0  0  0  0  0  0  0  0  0  0
   37.4054   34.6014   12.6110 H   0  0  0  0  0  0  0  0  0  0  0  0
   36.3993   33.6772   13.7416 H   0  0  0  0  0  0  0  0  0  0  0  0
   36.8492   32.9798   12.1745 H   0  0  0  0  0  0  0  0  0  0  0  0
   41.1606   35.7732   12.9813 H   0  0  0  0  0  0  0  0  0  0  0  0
   39.9095   35.1628   14.0649 H   0  0  0  0  0  0  0  0  0  0  0  0
   38.2358   31.9994   14.0336 H   0  0  0  0  0  0  0  0  0  0  0  0
   38.7812   33.6156   14.4866 H   0  0  0  0  0  0  0  0  0  0  0  0
   42.5378   32.5524   17.0268 H   0  0  0  0  0  0  0  0  0  0  0  0
  1  2  1  0  0  0  0
  1  6  2  0  0  0  0
  2  7  2  0  0  0  0
  3  5  2  0  0  0  0
  3  6  1  0  0  0  0
  4  8  2  0  0  0  0
  4 17  1  0  0  0  0
  5  7  1  0  0  0  0
  5 10  1  0  0  0  0
  6 16  1  0  0  0  0
  7 19  1  0  0  0  0
  8 14  1  0  0  0  0
  8 18  1  0  0  0  0
  9 12  1  0  0  0  0
  9 17  2  0  0  0  0
  9 18  1  0  0  0  0
 10 20  1  0  0  0  0
 10 21  2  0  0  0  0
 11 19  1  0  0  0  0
 11 20  1  0  0  0  0
 11 22  2  0  0  0  0
 13 15  1  0  0  0  0
 14 20  1  0  0  0  0
 15 18  1  0  0  0  0
 16 23  1  0  0  0  0
 16 24  1  0  0  0  0
 16 25  1  0  0  0  0
  1 26  1  0  0  0  0
  2 27  1  0  0  0  0
  3 28  1  0  0  0  0
  4 29  1  0  0  0  0
 12 30  1  0  0  0  0
 12 31  1  0  0  0  0
 12 32  1  0  0  0  0
 13 33  1  0  0  0  0
 13 34  1  0  0  0  0
 13 35  1  0  0  0  0
 14 36  1  0  0  0  0
 14 37  1  0  0  0  0
 15 38  1  0  0  0  0
 15 39  1  0  0  0  0
 19 40  1  0  0  0  0
M  END
> <Chemgauss4 Score>
-6.483714103699

> <Number of Confs>
25

> <og_smiles_field>
CCN1C(CN2C(=O)NC3=CC=C(C(F)(F)F)C=C3C2=O)=CN=C1C

$$$$

  -OEChem-03232314423D

 50 51  0     1  0  0  0  0  0999 V2000
   50.6377   37.8826   14.4742 C   0  0  0  0  0  0  0  0  0  0  0  0
   49.9694   38.8214   16.4618 C   0  0  0  0  0  0  0  0  0  0  0  0
   48.9230   36.8150   15.7299 C   0  0  0  0  0  0  0  0  0  0  0  0
   49.7356   36.8387   14.6018 C   0  0  0  0  0  0  0  0  0  0  0  0
   49.0358   37.8216   16.6824 C   0  0  0  0  0  0  0  0  0  0  0  0
   41.4609   35.5451   12.3655 C   0  0  0  0  0  0  0  0  0  0  0  0
   45.6514   34.7980   15.2348 C   0  0  0  0  0  0  0  0  0  0  0  0
   40.1381   33.4852   14.9668 C   0  0  0  0  0  0  0  0  0  0  0  0
   41.3384   33.2513   15.8841 C   0  0  0  0  0  0  0  0  0  0  0  0
   40.5649   33.5396   13.5033 C   0  0  0  0  0  0  0  0  0  0  0  0
   42.8164   34.3274   14.1422 C   0  0  0  0  0  0  0  0  0  0  0  0
   42.4382   34.2939   15.6300 C   0  0  2  0  0  0  0  0  0  0  0  0
   42.3749   37.7048   13.1436 C   0  0  0  0  0  0  0  0  0  0  0  0
   44.6360   36.1973   17.0778 C   0  0  0  0  0  0  0  0  0  0  0  0
   47.9235   35.7030   15.9189 C   0  0  0  0  0  0  0  0  0  0  0  0
   42.5965   36.5273   12.2258 C   0  0  0  0  0  0  0  0  0  0  0  0
   46.6812   35.9048   15.0484 C   0  0  0  0  0  0  0  0  0  0  0  0
   43.6636   34.0100   16.4949 C   0  0  0  0  0  0  0  0  0  0  0  0
   50.7760   38.8781   15.3783 N   0  0  0  0  0  0  0  0  0  0  0  0
   41.6247   34.5300   13.3075 N   0  0  0  0  0  0  0  0  0  0  0  0
   44.6708   34.9838   16.2389 N   0  0  0  0  0  0  0  0  0  0  0  0
   40.4582   35.6790   11.6593 O   0  0  0  0  0  0  0  0  0  0  0  0
   45.6866   33.7860   14.5297 O   0  0  0  0  0  0  0  0  0  0  0  0
   49.6555   35.6309   13.3792 Cl  0  0  0  0  0  0  0  0  0  0  0  0
   48.0674   37.8621   18.1038 Cl  0  0  0  0  0  0  0  0  0  0  0  0
   51.3003   37.9595   13.6173 H   0  0  0  0  0  0  0  0  0  0  0  0
   50.1071   39.6362   17.1665 H   0  0  0  0  0  0  0  0  0  0  0  0
   39.4060   32.6823   15.1085 H   0  0  0  0  0  0  0  0  0  0  0  0
   39.6418   34.4244   15.2405 H   0  0  0  0  0  0  0  0  0  0  0  0
   41.0123   33.2952   16.9298 H   0  0  0  0  0  0  0  0  0  0  0  0
   41.7329   32.2413   15.7137 H   0  0  0  0  0  0  0  0  0  0  0  0
   40.9608   32.5688   13.1822 H   0  0  0  0  0  0  0  0  0  0  0  0
   39.6982   33.7637   12.8735 H   0  0  0  0  0  0  0  0  0  0  0  0
   43.5664   35.1021   13.9706 H   0  0  0  0  0  0  0  0  0  0  0  0
   43.2643   33.3745   13.8341 H   0  0  0  0  0  0  0  0  0  0  0  0
   42.0509   35.2833   15.9099 H   0  0  0  0  0  0  0  0  0  0  0  0
   41.4430   38.2135   12.8786 H   0  0  0  0  0  0  0  0  0  0  0  0
   43.1948   38.4272   13.0687 H   0  0  0  0  0  0  0  0  0  0  0  0
   42.3071   37.3879   14.1896 H   0  0  0  0  0  0  0  0  0  0  0  0
   44.0066   36.9595   16.5951 H   0  0  0  0  0  0  0  0  0  0  0  0
   44.2187   35.9488   18.0648 H   0  0  0  0  0  0  0  0  0  0  0  0
   45.6569   36.5883   17.1993 H   0  0  0  0  0  0  0  0  0  0  0  0
   48.3985   34.7408   15.6868 H   0  0  0  0  0  0  0  0  0  0  0  0
   47.6403   35.6432   16.9778 H   0  0  0  0  0  0  0  0  0  0  0  0
   43.5196   36.0035   12.4699 H   0  0  0  0  0  0  0  0  0  0  0  0
   42.6280   36.8415   11.1835 H   0  0  0  0  0  0  0  0  0  0  0  0
   46.9764   35.9288   13.9926 H   0  0  0  0  0  0  0  0  0  0  0  0
   46.2106   36.8621   15.3025 H   0  0  0  0  0  0  0  0  0  0  0  0
   43.3426   34.0543   17.5342 H   0  0  0  0  0  0  0  0  0  0  0  0
   44.0184   33.0139   16.2351 H   0  0  0  0  0  0  0  0  0  0  0  0
  1  4  1  0  0  0  0
  1 19  2  0  0  0  0
  2  5  2  0  0  0  0
  2 19  1  0  0  0  0
  3  4  2  0  0  0  0
  3  5  1  0  0  0  0
  3 15  1  0  0  0  0
  4 24  1  0  0  0  0
  5 25  1  0  0  0  0
  6 16  1  0  0  0  0
  6 20  1  0  0  0  0
  6 22  2  0  0  0  0
  7 17  1  0  0  0  0
  7 21  1  0  0  0  0
  7 23  2  0  0  0  0
  8  9  1  0  0  0  0
  8 10  1  0  0  0  0
  9 12  1  0  0  0  0
 10 20  1  0  0  0  0
 11 12  1  0  0  0  0
 11 20  1  0  0  0  0
 12 18  1  0  0  0  0
 13 16  1  0  0  0  0
 14 21  1  0  0  0  0
 15 17  1  0  0  0  0
 18 21  1  0  0  0  0
  1 26  1  0  0  0  0
  2 27  1  0  0  0  0
  8 28  1  0  0  0  0
  8 29  1  0  0  0  0
  9 30  1  0  0  0  0
  9 31  1  0  0  0  0
 10 32  1  0  0  0  0
 10 33  1  0  0  0  0
 11 34  1  0  0  0  0
 11 35  1  0  0  0  0
 12 36  1  0  0  0  0
 13 37  1  0  0  0  0
 13 38  1  0  0  0  0
 13 39  1  0  0  0  0
 14 40  1  0  0  0  0
 14 41  1  0  0  0  0
 14 42  1  0  0  0  0
 15 43  1  0  0  0  0
 15 44  1  0  0  0  0
 16 45  1  0  0  0  0
 16 46  1  0  0  0  0
 17 47  1  0  0  0  0
 17 48  1  0  0  0  0
 18 49  1  0  0  0  0
 18 50  1  0  0  0  0
M  END
> <Chemgauss4 Score>
-6.024260520935

> <Number of Confs>
200

> <og_smiles_field>
CCC(=O)N1CCCC(CN(C)C(=O)CCC2=C(Cl)C=NC=C2Cl)C1

$$$$

  -OEChem-03232314423D

 47 49  0     1  0  0  0  0  0999 V2000
   44.3930   34.9588   15.9318 C   0  0  0  0  0  0  0  0  0  0  0  0
   45.0905   36.4132   14.1331 C   0  0  0  0  0  0  0  0  0  0  0  0
   45.6218   35.1507   16.5634 C   0  0  0  0  0  0  0  0  0  0  0  0
   46.3192   36.6051   14.7647 C   0  0  0  0  0  0  0  0  0  0  0  0
   37.8518   32.3003   11.1200 C   0  0  0  0  0  0  0  0  0  0  0  0
   36.7544   33.0686   13.1289 C   0  0  0  0  0  0  0  0  0  0  0  0
   39.0924   32.6993   11.6340 C   0  0  0  0  0  0  0  0  0  0  0  0
   39.1577   33.3092   12.8986 C   0  0  0  0  0  0  0  0  0  0  0  0
   44.1274   35.5900   14.7166 C   0  0  0  0  0  0  0  0  0  0  0  0
   36.6882   32.4826   11.8669 C   0  0  0  0  0  0  0  0  0  0  0  0
   37.9838   33.4775   13.6454 C   0  0  0  0  0  0  0  0  0  0  0  0
   46.5848   35.9739   15.9799 C   0  0  0  0  0  0  0  0  0  0  0  0
   40.3404   32.5338   10.8064 C   0  0  0  0  0  0  0  0  0  0  0  0
   40.4890   33.7199   13.4848 C   0  0  0  0  0  0  0  0  0  0  0  0
   41.6241   32.6719   11.6313 C   0  0  0  0  0  0  0  0  0  0  0  0
   42.3594   36.6483   13.2769 C   0  0  0  0  0  0  0  0  0  0  0  0
   47.8632   37.6329   17.8150 C   0  0  0  0  0  0  0  0  0  0  0  0
   42.8351   34.1354   13.1181 C   0  0  0  0  0  0  0  0  0  0  0  0
   42.7875   35.3802   14.0269 C   0  0  1  0  0  0  0  0  0  0  0  0
   41.5495   33.8724   12.4730 N   0  0  2  0  0  0  0  0  0  0  0  0
   48.3701   35.0671   17.6307 O   0  0  0  0  0  0  0  0  0  0  0  0
   49.1116   36.5993   15.7737 O   0  0  0  0  0  0  0  0  0  0  0  0
   35.4874   32.0872   11.3629 O   0  0  0  0  0  0  0  0  0  0  0  0
   38.0316   34.0345   14.8639 F   0  0  0  0  0  0  0  0  0  0  0  0
   48.1220   36.2161   16.7715 S   0  0  0  0  0  0  0  0  0  0  0  0
   43.6489   34.3155   16.3937 H   0  0  0  0  0  0  0  0  0  0  0  0
   44.8925   36.9087   13.1863 H   0  0  0  0  0  0  0  0  0  0  0  0
   45.8187   34.6538   17.5097 H   0  0  0  0  0  0  0  0  0  0  0  0
   47.0626   37.2483   14.3011 H   0  0  0  0  0  0  0  0  0  0  0  0
   37.7931   31.8448   10.1342 H   0  0  0  0  0  0  0  0  0  0  0  0
   35.8515   33.2111   13.7163 H   0  0  0  0  0  0  0  0  0  0  0  0
   40.3105   31.5406   10.3404 H   0  0  0  0  0  0  0  0  0  0  0  0
   40.3549   33.2801   10.0031 H   0  0  0  0  0  0  0  0  0  0  0  0
   40.3383   34.6583   14.0355 H   0  0  0  0  0  0  0  0  0  0  0  0
   40.8048   32.9525   14.2025 H   0  0  0  0  0  0  0  0  0  0  0  0
   41.7296   31.7720   12.2500 H   0  0  0  0  0  0  0  0  0  0  0  0
   42.4986   32.7146   10.9677 H   0  0  0  0  0  0  0  0  0  0  0  0
   43.0691   36.8958   12.4810 H   0  0  0  0  0  0  0  0  0  0  0  0
   42.2925   37.5135   13.9456 H   0  0  0  0  0  0  0  0  0  0  0  0
   41.3780   36.5129   12.8080 H   0  0  0  0  0  0  0  0  0  0  0  0
   48.7928   37.8441   18.3459 H   0  0  0  0  0  0  0  0  0  0  0  0
   47.5823   38.4781   17.1847 H   0  0  0  0  0  0  0  0  0  0  0  0
   47.0643   37.3996   18.5205 H   0  0  0  0  0  0  0  0  0  0  0  0
   43.6043   34.2444   12.3446 H   0  0  0  0  0  0  0  0  0  0  0  0
   43.1037   33.2543   13.7134 H   0  0  0  0  0  0  0  0  0  0  0  0
   42.0309   35.1993   14.8035 H   0  0  0  0  0  0  0  0  0  0  0  0
   35.6039   31.6995   10.4808 H   0  0  0  0  0  0  0  0  0  0  0  0
  1  3  1  0  0  0  0
  1  9  2  0  0  0  0
  2  4  2  0  0  0  0
  2  9  1  0  0  0  0
  3 12  2  0  0  0  0
  4 12  1  0  0  0  0
  5  7  2  0  0  0  0
  5 10  1  0  0  0  0
  6 10  2  0  0  0  0
  6 11  1  0  0  0  0
  7  8  1  0  0  0  0
  7 13  1  0  0  0  0
  8 11  2  0  0  0  0
  8 14  1  0  0  0  0
  9 19  1  0  0  0  0
 10 23  1  0  0  0  0
 11 24  1  0  0  0  0
 12 25  1  0  0  0  0
 13 15  1  0  0  0  0
 14 20  1  0  0  0  0
 15 20  1  0  0  0  0
 16 19  1  0  0  0  0
 17 25  1  0  0  0  0
 18 19  1  0  0  0  0
 18 20  1  0  0  0  0
 21 25  2  0  0  0  0
 22 25  2  0  0  0  0
  1 26  1  0  0  0  0
  2 27  1  0  0  0  0
  3 28  1  0  0  0  0
  4 29  1  0  0  0  0
  5 30  1  0  0  0  0
  6 31  1  0  0  0  0
 13 32  1  0  0  0  0
 13 33  1  0  0  0  0
 14 34  1  0  0  0  0
 14 35  1  0  0  0  0
 15 36  1  0  0  0  0
 15 37  1  0  0  0  0
 16 38  1  0  0  0  0
 16 39  1  0  0  0  0
 16 40  1  0  0  0  0
 17 41  1  0  0  0  0
 17 42  1  0  0  0  0
 17 43  1  0  0  0  0
 18 44  1  0  0  0  0
 18 45  1  0  0  0  0
 19 46  1  0  0  0  0
 23 47  1  0  0  0  0
M  END
> <Chemgauss4 Score>
-7.133576393127

> <Number of Confs>
63

> <og_smiles_field>
CC(CN1CCC2=CC(O)=CC(F)=C2C1)C1=CC=C(S(C)(=O)=O)C=C1

$$$$

  -OEChem-03232314423D

 65 68  0     1  0  0  0  0  0999 V2000
   42.7594   33.6740   16.1683 C   0  0  0  0  0  0  0  0  0  0  0  0
   43.5394   34.6342   15.4965 C   0  0  0  0  0  0  0  0  0  0  0  0
   42.8255   34.9215   14.3588 C   0  0  0  0  0  0  0  0  0  0  0  0
   44.8424   35.2285   15.8917 C   0  0  0  0  0  0  0  0  0  0  0  0
   48.6869   40.5765   16.7269 C   0  0  0  0  0  0  0  0  0  0  0  0
   38.3618   33.2631   13.8154 C   0  0  0  0  0  0  0  0  0  0  0  0
   38.9455   32.5537   12.6056 C   0  0  0  0  0  0  0  0  0  0  0  0
   39.2441   34.4962   13.9746 C   0  0  0  0  0  0  0  0  0  0  0  0
   40.4469   32.6898   12.8121 C   0  0  0  0  0  0  0  0  0  0  0  0
   46.0465   38.5506   15.1677 C   0  0  0  0  0  0  0  0  0  0  0  0
   51.1757   41.1716   17.0470 C   0  0  0  0  0  0  0  0  0  0  0  0
   46.4705   39.8155   15.8983 C   0  0  0  0  0  0  0  0  0  0  0  0
   48.1946   38.1553   16.1313 C   0  0  0  0  0  0  0  0  0  0  0  0
   50.0861   40.1496   17.0920 C   0  0  2  0  0  0  0  0  0  0  0  0
   46.8551   37.4634   15.8790 C   0  0  2  0  0  0  0  0  0  0  0  0
   51.1133   40.0896   16.0067 C   0  0  2  0  0  0  0  0  0  0  0  0
   40.6274   34.0858   13.4320 C   0  0  0  0  0  0  0  0  0  0  0  0
   52.1179   38.9895   16.0088 C   0  0  0  0  0  0  0  0  0  0  0  0
   43.5978   35.1222   11.9819 C   0  0  0  0  0  0  0  0  0  0  0  0
   47.8389   35.1575   15.8303 C   0  0  0  0  0  0  0  0  0  0  0  0
   47.6295   36.4795   13.7097 C   0  0  0  0  0  0  0  0  0  0  0  0
   43.1013   35.8433   13.2398 C   0  0  0  0  0  0  0  0  0  0  0  0
   46.9808   36.1837   15.0726 C   0  0  0  0  0  0  0  0  0  0  0  0
   41.6360   33.3716   15.5123 N   0  0  0  0  0  0  0  0  0  0  0  0
   41.7048   34.1464   14.4164 N   0  0  0  0  0  0  0  0  0  0  0  0
   47.8520   39.5670   16.2833 N   0  0  0  0  0  0  0  0  0  0  0  0
   45.6614   35.6085   14.8484 N   0  0  0  0  0  0  0  0  0  0  0  0
   45.1198   35.3273   17.0841 O   0  0  0  0  0  0  0  0  0  0  0  0
   48.3461   41.7555   16.8353 O   0  0  0  0  0  0  0  0  0  0  0  0
   42.9607   33.1819   17.1094 H   0  0  0  0  0  0  0  0  0  0  0  0
   37.3079   33.5216   13.6793 H   0  0  0  0  0  0  0  0  0  0  0  0
   38.4461   32.6254   14.7036 H   0  0  0  0  0  0  0  0  0  0  0  0
   38.6292   31.5088   12.5408 H   0  0  0  0  0  0  0  0  0  0  0  0
   38.6414   33.0618   11.6828 H   0  0  0  0  0  0  0  0  0  0  0  0
   38.8434   35.3077   13.3546 H   0  0  0  0  0  0  0  0  0  0  0  0
   39.2610   34.8496   15.0107 H   0  0  0  0  0  0  0  0  0  0  0  0
   40.8024   31.9025   13.4888 H   0  0  0  0  0  0  0  0  0  0  0  0
   40.9961   32.5891   11.8705 H   0  0  0  0  0  0  0  0  0  0  0  0
   44.9686   38.3761   15.2344 H   0  0  0  0  0  0  0  0  0  0  0  0
   46.3221   38.6164   14.1081 H   0  0  0  0  0  0  0  0  0  0  0  0
   50.9454   42.1830   16.7334 H   0  0  0  0  0  0  0  0  0  0  0  0
   51.9376   41.1094   17.8149 H   0  0  0  0  0  0  0  0  0  0  0  0
   46.3936   40.7160   15.2820 H   0  0  0  0  0  0  0  0  0  0  0  0
   45.8904   39.9645   16.8158 H   0  0  0  0  0  0  0  0  0  0  0  0
   48.6978   37.7818   17.0282 H   0  0  0  0  0  0  0  0  0  0  0  0
   48.8754   38.0680   15.2771 H   0  0  0  0  0  0  0  0  0  0  0  0
   50.1104   39.4167   17.8770 H   0  0  0  0  0  0  0  0  0  0  0  0
   46.3799   37.2377   16.8441 H   0  0  0  0  0  0  0  0  0  0  0  0
   50.8380   40.3804   14.9996 H   0  0  0  0  0  0  0  0  0  0  0  0
   40.9378   34.8138   12.6367 H   0  0  0  0  0  0  0  0  0  0  0  0
   52.3965   38.6952   17.0337 H   0  0  0  0  0  0  0  0  0  0  0  0
   53.0449   39.2845   15.4911 H   0  0  0  0  0  0  0  0  0  0  0  0
   51.7349   38.0881   15.5035 H   0  0  0  0  0  0  0  0  0  0  0  0
   44.4917   34.5288   12.2022 H   0  0  0  0  0  0  0  0  0  0  0  0
   43.8502   35.8340   11.1897 H   0  0  0  0  0  0  0  0  0  0  0  0
   42.8303   34.4429   11.5958 H   0  0  0  0  0  0  0  0  0  0  0  0
   47.9443   34.2232   15.2667 H   0  0  0  0  0  0  0  0  0  0  0  0
   47.3840   34.9040   16.7949 H   0  0  0  0  0  0  0  0  0  0  0  0
   48.8435   35.5497   16.0239 H   0  0  0  0  0  0  0  0  0  0  0  0
   47.7265   35.5629   13.1164 H   0  0  0  0  0  0  0  0  0  0  0  0
   47.0293   37.1925   13.1338 H   0  0  0  0  0  0  0  0  0  0  0  0
   48.6355   36.9003   13.8224 H   0  0  0  0  0  0  0  0  0  0  0  0
   42.2000   36.4288   12.9728 H   0  0  0  0  0  0  0  0  0  0  0  0
   43.8535   36.6044   13.5250 H   0  0  0  0  0  0  0  0  0  0  0  0
   45.4002   35.4423   13.8874 H   0  0  0  0  0  0  0  0  0  0  0  0
  1  2  1  0  0  0  0
  1 24  2  0  0  0  0
  2  3  2  0  0  0  0
  2  4  1  0  0  0  0
  3 22  1  0  0  0  0
  3 25  1  0  0  0  0
  4 27  1  0  0  0  0
  4 28  2  0  0  0  0
  5 14  1  0  0  0  0
  5 26  1  0  0  0  0
  5 29  2  0  0  0  0
  6  7  1  0  0  0  0
  6  8  1  0  0  0  0
  7  9  1  0  0  0  0
  8 17  1  0  0  0  0
  9 17  1  0  0  0  0
 10 12  1  0  0  0  0
 10 15  1  0  0  0  0
 11 14  1  0  0  0  0
 11 16  1  0  0  0  0
 12 26  1  0  0  0  0
 13 15  1  0  0  0  0
 13 26  1  0  0  0  0
 14 16  1  0  0  0  0
 15 23  1  0  0  0  0
 16 18  1  0  0  0  0
 17 25  1  0  0  0  0
 19 22  1  0  0  0  0
 20 23  1  0  0  0  0
 21 23  1  0  0  0  0
 23 27  1  0  0  0  0
 24 25  1  0  0  0  0
  1 30  1  0  0  0  0
  6 31  1  0  0  0  0
  6 32  1  0  0  0  0
  7 33  1  0  0  0  0
  7 34  1  0  0  0  0
  8 35  1  0  0  0  0
  8 36  1  0  0  0  0
  9 37  1  0  0  0  0
  9 38  1  0  0  0  0
 10 39  1  0  0  0  0
 10 40  1  0  0  0  0
 11 41  1  0  0  0  0
 11 42  1  0  0  0  0
 12 43  1  0  0  0  0
 12 44  1  0  0  0  0
 13 45  1  0  0  0  0
 13 46  1  0  0  0  0
 14 47  1  0  0  0  0
 15 48  1  0  0  0  0
 16 49  1  0  0  0  0
 17 50  1  0  0  0  0
 18 51  1  0  0  0  0
 18 52  1  0  0  0  0
 18 53  1  0  0  0  0
 19 54  1  0  0  0  0
 19 55  1  0  0  0  0
 19 56  1  0  0  0  0
 20 57  1  0  0  0  0
 20 58  1  0  0  0  0
 20 59  1  0  0  0  0
 21 60  1  0  0  0  0
 21 61  1  0  0  0  0
 21 62  1  0  0  0  0
 22 63  1  0  0  0  0
 22 64  1  0  0  0  0
 27 65  1  0  0  0  0
M  END
> <Chemgauss4 Score>
-5.218958854675

> <Number of Confs>
200

> <og_smiles_field>
CCC1=C(C(=O)NC(C)(C)C2CCN(C(=O)[C@@H]3C[C@H]3C)C2)C=NN1C1CCCC1

$$$$

  -OEChem-03232314423D

 58 60  0     1  0  0  0  0  0999 V2000
   45.0860   36.5895   13.3592 C   0  0  0  0  0  0  0  0  0  0  0  0
   48.6883   37.7152   17.3923 C   0  0  0  0  0  0  0  0  0  0  0  0
   43.0542   35.2137   15.8181 C   0  0  0  0  0  0  0  0  0  0  0  0
   41.5055   34.1508   14.1499 C   0  0  0  0  0  0  0  0  0  0  0  0
   42.2072   36.1823   12.1499 C   0  0  0  0  0  0  0  0  0  0  0  0
   43.1119   33.8707   16.5455 C   0  0  0  0  0  0  0  0  0  0  0  0
   41.6237   32.8499   14.9439 C   0  0  0  0  0  0  0  0  0  0  0  0
   46.4473   38.3483   14.5388 C   0  0  0  0  0  0  0  0  0  0  0  0
   47.8193   38.5462   15.1725 C   0  0  0  0  0  0  0  0  0  0  0  0
   47.3611   36.0694   14.1878 C   0  0  0  0  0  0  0  0  0  0  0  0
   42.1055   37.5318   11.4514 C   0  0  0  0  0  0  0  0  0  0  0  0
   43.6511   38.5552   12.9343 C   0  0  0  0  0  0  0  0  0  0  0  0
   43.8110   37.2861   13.7697 C   0  0  1  0  0  0  0  0  0  0  0  0
   42.7549   35.0233   14.3257 C   0  0  0  0  0  0  0  0  0  0  0  0
   42.5882   36.3679   13.6237 C   0  0  2  0  0  0  0  0  0  0  0  0
   47.9080   36.0692   15.6420 C   0  0  0  0  0  0  0  0  0  0  0  0
   49.5587   38.9399   17.5370 C   0  0  0  0  0  0  0  0  0  0  0  0
   49.2226   35.2637   15.6270 C   0  0  0  0  0  0  0  0  0  0  0  0
   46.8751   35.3593   16.5430 C   0  0  0  0  0  0  0  0  0  0  0  0
   41.8802   33.0994   16.3640 N   0  0  0  0  0  0  0  0  0  0  0  0
   46.2457   36.9971   14.0204 N   0  0  0  0  0  0  0  0  0  0  0  0
   48.1446   37.4700   16.1214 N   0  0  0  0  0  0  0  0  0  0  0  0
   45.0518   35.7191   12.4867 O   0  0  0  0  0  0  0  0  0  0  0  0
   48.5050   37.0050   18.3840 O   0  0  0  0  0  0  0  0  0  0  0  0
   43.3260   38.2580   11.5749 O   0  0  0  0  0  0  0  0  0  0  0  0
   42.2811   35.8433   16.2779 H   0  0  0  0  0  0  0  0  0  0  0  0
   44.0086   35.7384   15.9446 H   0  0  0  0  0  0  0  0  0  0  0  0
   41.3568   33.9187   13.0887 H   0  0  0  0  0  0  0  0  0  0  0  0
   40.6153   34.7002   14.4837 H   0  0  0  0  0  0  0  0  0  0  0  0
   41.2548   35.6471   12.0650 H   0  0  0  0  0  0  0  0  0  0  0  0
   42.9699   35.5741   11.6481 H   0  0  0  0  0  0  0  0  0  0  0  0
   43.9748   33.2889   16.1986 H   0  0  0  0  0  0  0  0  0  0  0  0
   43.2589   34.0509   17.6162 H   0  0  0  0  0  0  0  0  0  0  0  0
   40.6886   32.2873   14.8489 H   0  0  0  0  0  0  0  0  0  0  0  0
   42.4183   32.2213   14.5234 H   0  0  0  0  0  0  0  0  0  0  0  0
   45.6635   38.5422   15.2800 H   0  0  0  0  0  0  0  0  0  0  0  0
   46.3110   39.0598   13.7173 H   0  0  0  0  0  0  0  0  0  0  0  0
   48.6039   38.5460   14.4061 H   0  0  0  0  0  0  0  0  0  0  0  0
   47.8413   39.5308   15.6424 H   0  0  0  0  0  0  0  0  0  0  0  0
   48.1387   36.3798   13.4775 H   0  0  0  0  0  0  0  0  0  0  0  0
   47.0607   35.0579   13.8901 H   0  0  0  0  0  0  0  0  0  0  0  0
   41.9122   37.3836   10.3842 H   0  0  0  0  0  0  0  0  0  0  0  0
   41.2810   38.1303   11.8563 H   0  0  0  0  0  0  0  0  0  0  0  0
   42.8666   39.1960   13.3546 H   0  0  0  0  0  0  0  0  0  0  0  0
   44.5795   39.1369   12.9275 H   0  0  0  0  0  0  0  0  0  0  0  0
   43.9436   37.5593   14.8219 H   0  0  0  0  0  0  0  0  0  0  0  0
   43.6066   34.5030   13.8667 H   0  0  0  0  0  0  0  0  0  0  0  0
   41.7481   36.8807   14.1138 H   0  0  0  0  0  0  0  0  0  0  0  0
   48.9375   39.7839   17.8163 H   0  0  0  0  0  0  0  0  0  0  0  0
   50.0515   39.1376   16.5910 H   0  0  0  0  0  0  0  0  0  0  0  0
   50.3033   38.7559   18.3041 H   0  0  0  0  0  0  0  0  0  0  0  0
   49.6361   35.2411   16.6287 H   0  0  0  0  0  0  0  0  0  0  0  0
   49.9228   35.7404   14.9506 H   0  0  0  0  0  0  0  0  0  0  0  0
   49.0159   34.2539   15.2913 H   0  0  0  0  0  0  0  0  0  0  0  0
   47.2426   35.3509   17.5621 H   0  0  0  0  0  0  0  0  0  0  0  0
   46.7391   34.3437   16.1912 H   0  0  0  0  0  0  0  0  0  0  0  0
   45.9356   35.8964   16.4935 H   0  0  0  0  0  0  0  0  0  0  0  0
   41.9665   32.2082   16.8517 H   0  0  0  0  0  0  0  0  0  0  0  0
  1 13  1  0  0  0  0
  1 21  1  0  0  0  0
  1 23  2  0  0  0  0
  2 17  1  0  0  0  0
  2 22  1  0  0  0  0
  2 24  2  0  0  0  0
  3  6  1  0  0  0  0
  3 14  1  0  0  0  0
  4  7  1  0  0  0  0
  4 14  1  0  0  0  0
  5 11  1  0  0  0  0
  5 15  1  0  0  0  0
  6 20  1  0  0  0  0
  7 20  1  0  0  0  0
  8  9  1  0  0  0  0
  8 21  1  0  0  0  0
  9 22  1  0  0  0  0
 10 16  1  0  0  0  0
 10 21  1  0  0  0  0
 11 25  1  0  0  0  0
 12 13  1  0  0  0  0
 12 25  1  0  0  0  0
 13 15  1  0  0  0  0
 14 15  1  0  0  0  0
 16 18  1  0  0  0  0
 16 19  1  0  0  0  0
 16 22  1  0  0  0  0
  3 26  1  0  0  0  0
  3 27  1  0  0  0  0
  4 28  1  0  0  0  0
  4 29  1  0  0  0  0
  5 30  1  0  0  0  0
  5 31  1  0  0  0  0
  6 32  1  0  0  0  0
  6 33  1  0  0  0  0
  7 34  1  0  0  0  0
  7 35  1  0  0  0  0
  8 36  1  0  0  0  0
  8 37  1  0  0  0  0
  9 38  1  0  0  0  0
  9 39  1  0  0  0  0
 10 40  1  0  0  0  0
 10 41  1  0  0  0  0
 11 42  1  0  0  0  0
 11 43  1  0  0  0  0
 12 44  1  0  0  0  0
 12 45  1  0  0  0  0
 13 46  1  0  0  0  0
 14 47  1  0  0  0  0
 15 48  1  0  0  0  0
 17 49  1  0  0  0  0
 17 50  1  0  0  0  0
 17 51  1  0  0  0  0
 18 52  1  0  0  0  0
 18 53  1  0  0  0  0
 18 54  1  0  0  0  0
 19 55  1  0  0  0  0
 19 56  1  0  0  0  0
 19 57  1  0  0  0  0
 20 58  1  0  0  0  0
M  END
> <Chemgauss4 Score>
-5.595404624939

> <Number of Confs>
12

> <og_smiles_field>
CC(=O)N1CCN(C(=O)C2COCCC2C2CCNCC2)CC1(C)C

$$$$

  -OEChem-03232314423D

 52 54  0     1  0  0  0  0  0999 V2000
   39.3544   33.0762   14.5085 C   0  0  0  0  0  0  0  0  0  0  0  0
   38.1568   32.9494   13.8046 C   0  0  0  0  0  0  0  0  0  0  0  0
   39.2603   33.7026   11.7916 C   0  0  0  0  0  0  0  0  0  0  0  0
   40.5049   33.5162   13.8539 C   0  0  0  0  0  0  0  0  0  0  0  0
   38.1098   33.2627   12.4462 C   0  0  0  0  0  0  0  0  0  0  0  0
   40.4579   33.8294   12.4955 C   0  0  0  0  0  0  0  0  0  0  0  0
   45.3020   36.9523   16.9847 C   0  0  0  0  0  0  0  0  0  0  0  0
   46.8376   35.7418   15.4162 C   0  0  0  0  0  0  0  0  0  0  0  0
   46.5232   37.3206   17.8298 C   0  0  0  0  0  0  0  0  0  0  0  0
   48.0079   36.1497   16.3135 C   0  0  0  0  0  0  0  0  0  0  0  0
   43.2182   34.0825   17.0437 C   0  0  0  0  0  0  0  0  0  0  0  0
   41.9337   35.0509   15.2493 C   0  0  0  0  0  0  0  0  0  0  0  0
   43.0649   32.7140   16.3847 C   0  0  0  0  0  0  0  0  0  0  0  0
   41.8030   33.6527   14.6212 C   0  0  1  0  0  0  0  0  0  0  0  0
   45.5313   35.6490   16.2120 C   0  0  0  0  0  0  0  0  0  0  0  0
   49.9502   38.4101   16.9065 C   0  0  0  0  0  0  0  0  0  0  0  0
   49.3917   36.6088   18.5766 C   0  0  0  0  0  0  0  0  0  0  0  0
   44.3510   35.3399   15.2952 C   0  0  0  0  0  0  0  0  0  0  0  0
   48.8792   37.8212   17.8132 C   0  0  0  0  0  0  0  0  0  0  0  0
   43.1330   35.1943   16.0878 N   0  0  2  0  0  0  0  0  0  0  0  0
   47.7317   37.4187   17.0002 N   0  0  0  0  0  0  0  0  0  0  0  0
   41.8452   32.6503   15.6453 O   0  0  0  0  0  0  0  0  0  0  0  0
   36.9600   33.1402   11.7701 F   0  0  0  0  0  0  0  0  0  0  0  0
   41.5581   34.2533   11.8580 F   0  0  0  0  0  0  0  0  0  0  0  0
   39.3815   32.8293   15.5665 H   0  0  0  0  0  0  0  0  0  0  0  0
   37.2610   32.6064   14.3136 H   0  0  0  0  0  0  0  0  0  0  0  0
   39.2238   33.9466   10.7341 H   0  0  0  0  0  0  0  0  0  0  0  0
   44.4262   36.8511   17.6368 H   0  0  0  0  0  0  0  0  0  0  0  0
   45.0842   37.7702   16.2851 H   0  0  0  0  0  0  0  0  0  0  0  0
   46.7310   36.4723   14.6034 H   0  0  0  0  0  0  0  0  0  0  0  0
   47.0590   34.7756   14.9474 H   0  0  0  0  0  0  0  0  0  0  0  0
   46.3250   38.2856   18.3121 H   0  0  0  0  0  0  0  0  0  0  0  0
   46.6556   36.5786   18.6283 H   0  0  0  0  0  0  0  0  0  0  0  0
   48.2136   35.3497   17.0370 H   0  0  0  0  0  0  0  0  0  0  0  0
   48.8993   36.2554   15.6833 H   0  0  0  0  0  0  0  0  0  0  0  0
   42.4381   34.1978   17.8213 H   0  0  0  0  0  0  0  0  0  0  0  0
   44.1928   34.1122   17.5650 H   0  0  0  0  0  0  0  0  0  0  0  0
   41.9549   35.8064   14.4404 H   0  0  0  0  0  0  0  0  0  0  0  0
   41.0315   35.2727   15.8549 H   0  0  0  0  0  0  0  0  0  0  0  0
   43.9077   32.4892   15.7200 H   0  0  0  0  0  0  0  0  0  0  0  0
   43.0306   31.9341   17.1517 H   0  0  0  0  0  0  0  0  0  0  0  0
   42.6299   33.4680   13.9068 H   0  0  0  0  0  0  0  0  0  0  0  0
   45.6234   34.8281   16.9357 H   0  0  0  0  0  0  0  0  0  0  0  0
   50.3047   37.6650   16.1869 H   0  0  0  0  0  0  0  0  0  0  0  0
   49.5704   39.2720   16.3464 H   0  0  0  0  0  0  0  0  0  0  0  0
   50.8105   38.7518   17.4924 H   0  0  0  0  0  0  0  0  0  0  0  0
   49.7371   35.8322   17.8854 H   0  0  0  0  0  0  0  0  0  0  0  0
   48.6021   36.1793   19.2018 H   0  0  0  0  0  0  0  0  0  0  0  0
   50.2354   36.8711   19.2248 H   0  0  0  0  0  0  0  0  0  0  0  0
   44.2570   36.1706   14.5974 H   0  0  0  0  0  0  0  0  0  0  0  0
   44.5812   34.4125   14.7727 H   0  0  0  0  0  0  0  0  0  0  0  0
   48.5400   38.5830   18.5235 H   0  0  0  0  0  0  0  0  0  0  0  0
  1  2  1  0  0  0  0
  1  4  2  0  0  0  0
  2  5  2  0  0  0  0
  3  5  1  0  0  0  0
  3  6  2  0  0  0  0
  4  6  1  0  0  0  0
  4 14  1  0  0  0  0
  5 23  1  0  0  0  0
  6 24  1  0  0  0  0
  7  9  1  0  0  0  0
  7 15  1  0  0  0  0
  8 10  1  0  0  0  0
  8 15  1  0  0  0  0
  9 21  1  0  0  0  0
 10 21  1  0  0  0  0
 11 13  1  0  0  0  0
 11 20  1  0  0  0  0
 12 14  1  0  0  0  0
 12 20  1  0  0  0  0
 13 22  1  0  0  0  0
 14 22  1  0  0  0  0
 15 18  1  0  0  0  0
 16 19  1  0  0  0  0
 17 19  1  0  0  0  0
 18 20  1  0  0  0  0
 19 21  1  0  0  0  0
  1 25  1  0  0  0  0
  2 26  1  0  0  0  0
  3 27  1  0  0  0  0
  7 28  1  0  0  0  0
  7 29  1  0  0  0  0
  8 30  1  0  0  0  0
  8 31  1  0  0  0  0
  9 32  1  0  0  0  0
  9 33  1  0  0  0  0
 10 34  1  0  0  0  0
 10 35  1  0  0  0  0
 11 36  1  0  0  0  0
 11 37  1  0  0  0  0
 12 38  1  0  0  0  0
 12 39  1  0  0  0  0
 13 40  1  0  0  0  0
 13 41  1  0  0  0  0
 14 42  1  0  0  0  0
 15 43  1  0  0  0  0
 16 44  1  0  0  0  0
 16 45  1  0  0  0  0
 16 46  1  0  0  0  0
 17 47  1  0  0  0  0
 17 48  1  0  0  0  0
 17 49  1  0  0  0  0
 18 50  1  0  0  0  0
 18 51  1  0  0  0  0
 19 52  1  0  0  0  0
M  END
> <Chemgauss4 Score>
-5.167880535126

> <Number of Confs>
144

> <og_smiles_field>
CC(C)N1CCC(CN2CCOC(C3=CC=C(F)C=C3F)C2)CC1

$$$$

  -OEChem-03232314423D

 57 59  0     0  0  0  0  0  0999 V2000
   37.1560   34.0206   13.0710 C   0  0  0  0  0  0  0  0  0  0  0  0
   39.3240   33.8643   14.5285 C   0  0  0  0  0  0  0  0  0  0  0  0
   40.9782   32.3905   13.5142 C   0  0  0  0  0  0  0  0  0  0  0  0
   36.8824   33.3961   11.8761 C   0  0  0  0  0  0  0  0  0  0  0  0
   38.4610   33.6082   13.4486 C   0  0  0  0  0  0  0  0  0  0  0  0
   40.5816   33.2457   14.5455 C   0  0  0  0  0  0  0  0  0  0  0  0
   38.8928   32.7509   12.4417 C   0  0  0  0  0  0  0  0  0  0  0  0
   40.1363   32.1218   12.4308 C   0  0  0  0  0  0  0  0  0  0  0  0
   41.4949   33.5016   15.6662 C   0  0  0  0  0  0  0  0  0  0  0  0
   44.7499   34.9089   16.1333 C   0  0  0  0  0  0  0  0  0  0  0  0
   43.8609   35.5914   13.8759 C   0  0  0  0  0  0  0  0  0  0  0  0
   43.3169   34.8504   16.6533 C   0  0  0  0  0  0  0  0  0  0  0  0
   42.4465   35.5257   14.4424 C   0  0  0  0  0  0  0  0  0  0  0  0
   44.8813   35.8988   14.9745 C   0  0  0  0  0  0  0  0  0  0  0  0
   49.0697   38.7038   16.7865 C   0  0  0  0  0  0  0  0  0  0  0  0
   50.8310   37.6790   13.9724 C   0  0  0  0  0  0  0  0  0  0  0  0
   40.2171   29.9034   11.5776 C   0  0  0  0  0  0  0  0  0  0  0  0
   48.5091   38.5588   15.4127 C   0  0  0  0  0  0  0  0  0  0  0  0
   50.0494   36.7930   14.8816 C   0  0  0  0  0  0  0  0  0  0  0  0
   48.0485   37.0733   13.5814 C   0  0  0  0  0  0  0  0  0  0  0  0
   46.5388   36.9768   13.7043 C   0  0  0  0  0  0  0  0  0  0  0  0
   42.3837   34.5737   15.5601 N   0  0  0  0  0  0  0  0  0  0  0  0
   48.6500   37.1924   14.9293 N   0  0  0  0  0  0  0  0  0  0  0  0
   41.4099   32.7324   16.6224 O   0  0  0  0  0  0  0  0  0  0  0  0
   37.9298   32.6237   11.4858 O   0  0  0  0  0  0  0  0  0  0  0  0
   40.5262   31.2868   11.4257 O   0  0  0  0  0  0  0  0  0  0  0  0
   46.1991   35.8135   14.4459 O   0  0  0  0  0  0  0  0  0  0  0  0
   36.4957   34.6896   13.6047 H   0  0  0  0  0  0  0  0  0  0  0  0
   39.0188   34.5278   15.3328 H   0  0  0  0  0  0  0  0  0  0  0  0
   41.9600   31.9212   13.5491 H   0  0  0  0  0  0  0  0  0  0  0  0
   36.0318   33.3991   11.2102 H   0  0  0  0  0  0  0  0  0  0  0  0
   45.4327   35.1954   16.9421 H   0  0  0  0  0  0  0  0  0  0  0  0
   45.0740   33.9108   15.8105 H   0  0  0  0  0  0  0  0  0  0  0  0
   44.1148   34.6438   13.3833 H   0  0  0  0  0  0  0  0  0  0  0  0
   43.9175   36.3587   13.0947 H   0  0  0  0  0  0  0  0  0  0  0  0
   43.2351   34.0877   17.4343 H   0  0  0  0  0  0  0  0  0  0  0  0
   43.0281   35.8101   17.0976 H   0  0  0  0  0  0  0  0  0  0  0  0
   42.1433   36.5052   14.8312 H   0  0  0  0  0  0  0  0  0  0  0  0
   41.7458   35.2607   13.6469 H   0  0  0  0  0  0  0  0  0  0  0  0
   44.7334   36.9195   15.3474 H   0  0  0  0  0  0  0  0  0  0  0  0
   50.1373   38.4391   16.7773 H   0  0  0  0  0  0  0  0  0  0  0  0
   48.9531   39.7449   17.1219 H   0  0  0  0  0  0  0  0  0  0  0  0
   48.5320   38.0346   17.4743 H   0  0  0  0  0  0  0  0  0  0  0  0
   50.7704   38.7175   14.3302 H   0  0  0  0  0  0  0  0  0  0  0  0
   51.8825   37.3561   13.9606 H   0  0  0  0  0  0  0  0  0  0  0  0
   50.4170   37.6171   12.9552 H   0  0  0  0  0  0  0  0  0  0  0  0
   40.5820   29.3502   10.7087 H   0  0  0  0  0  0  0  0  0  0  0  0
   39.1355   29.7792   11.6740 H   0  0  0  0  0  0  0  0  0  0  0  0
   40.7069   29.5266   12.4786 H   0  0  0  0  0  0  0  0  0  0  0  0
   47.4420   38.8251   15.4304 H   0  0  0  0  0  0  0  0  0  0  0  0
   49.0452   39.2372   14.7327 H   0  0  0  0  0  0  0  0  0  0  0  0
   50.1149   35.7572   14.5172 H   0  0  0  0  0  0  0  0  0  0  0  0
   50.4746   36.8530   15.8943 H   0  0  0  0  0  0  0  0  0  0  0  0
   48.4648   36.1841   13.0974 H   0  0  0  0  0  0  0  0  0  0  0  0
   48.3277   37.9596   13.0037 H   0  0  0  0  0  0  0  0  0  0  0  0
   46.0868   36.8884   12.7115 H   0  0  0  0  0  0  0  0  0  0  0  0
   46.1194   37.8522   14.2109 H   0  0  0  0  0  0  0  0  0  0  0  0
  1  4  2  0  0  0  0
  1  5  1  0  0  0  0
  2  5  2  0  0  0  0
  2  6  1  0  0  0  0
  3  6  2  0  0  0  0
  3  8  1  0  0  0  0
  4 25  1  0  0  0  0
  5  7  1  0  0  0  0
  6  9  1  0  0  0  0
  7  8  2  0  0  0  0
  7 25  1  0  0  0  0
  8 26  1  0  0  0  0
  9 22  1  0  0  0  0
  9 24  2  0  0  0  0
 10 12  1  0  0  0  0
 10 14  1  0  0  0  0
 11 13  1  0  0  0  0
 11 14  1  0  0  0  0
 12 22  1  0  0  0  0
 13 22  1  0  0  0  0
 14 27  1  0  0  0  0
 15 18  1  0  0  0  0
 16 19  1  0  0  0  0
 17 26  1  0  0  0  0
 18 23  1  0  0  0  0
 19 23  1  0  0  0  0
 20 21  1  0  0  0  0
 20 23  1  0  0  0  0
 21 27  1  0  0  0  0
  1 28  1  0  0  0  0
  2 29  1  0  0  0  0
  3 30  1  0  0  0  0
  4 31  1  0  0  0  0
 10 32  1  0  0  0  0
 10 33  1  0  0  0  0
 11 34  1  0  0  0  0
 11 35  1  0  0  0  0
 12 36  1  0  0  0  0
 12 37  1  0  0  0  0
 13 38  1  0  0  0  0
 13 39  1  0  0  0  0
 14 40  1  0  0  0  0
 15 41  1  0  0  0  0
 15 42  1  0  0  0  0
 15 43  1  0  0  0  0
 16 44  1  0  0  0  0
 16 45  1  0  0  0  0
 16 46  1  0  0  0  0
 17 47  1  0  0  0  0
 17 48  1  0  0  0  0
 17 49  1  0  0  0  0
 18 50  1  0  0  0  0
 18 51  1  0  0  0  0
 19 52  1  0  0  0  0
 19 53  1  0  0  0  0
 20 54  1  0  0  0  0
 20 55  1  0  0  0  0
 21 56  1  0  0  0  0
 21 57  1  0  0  0  0
M  END
> <Chemgauss4 Score>
-7.204224586487

> <Number of Confs>
200

> <og_smiles_field>
CCN(CC)CCOC1CCN(C(=O)C2=CC(OC)=C3OC=CC3=C2)CC1

$$$$

  -OEChem-03232314423D

 49 51  0     1  0  0  0  0  0999 V2000
   51.4966   38.1192   15.1082 C   0  0  0  0  0  0  0  0  0  0  0  0
   50.2851   37.5852   14.6692 C   0  0  0  0  0  0  0  0  0  0  0  0
   51.5053   39.2525   15.9214 C   0  0  0  0  0  0  0  0  0  0  0  0
   49.0911   39.3178   15.8564 C   0  0  0  0  0  0  0  0  0  0  0  0
   46.0116   37.5813   13.6328 C   0  0  0  0  0  0  0  0  0  0  0  0
   49.0824   38.1845   15.0432 C   0  0  0  0  0  0  0  0  0  0  0  0
   46.1828   36.3166   14.2269 C   0  0  0  0  0  0  0  0  0  0  0  0
   50.3026   39.8518   16.2954 C   0  0  0  0  0  0  0  0  0  0  0  0
   47.4034   36.3932   14.8520 C   0  0  0  0  0  0  0  0  0  0  0  0
   41.3241   33.1519   14.4388 C   0  0  0  0  0  0  0  0  0  0  0  0
   44.0660   35.1049   13.5698 C   0  0  0  0  0  0  0  0  0  0  0  0
   39.4420   32.7868   12.7966 C   0  0  0  0  0  0  0  0  0  0  0  0
   40.0789   31.7186   11.9222 C   0  0  0  0  0  0  0  0  0  0  0  0
   42.3810   32.2090   12.3508 C   0  0  0  0  0  0  0  0  0  0  0  0
   42.2340   33.4348   13.2482 C   0  0  2  0  0  0  0  0  0  0  0  0
   46.1230   34.8304   17.0846 C   0  0  0  0  0  0  0  0  0  0  0  0
   48.1473   35.3949   15.6478 C   0  0  0  0  0  0  0  0  0  0  0  0
   47.5872   35.2400   17.0756 C   0  0  0  0  0  0  0  0  0  0  0  0
   47.0411   38.4014   13.8602 N   0  0  0  0  0  0  0  0  0  0  0  0
   47.8708   37.6503   14.6042 N   0  0  0  0  0  0  0  0  0  0  0  0
   40.0209   32.8228   14.1284 N   0  0  0  0  0  0  0  0  0  0  0  0
   45.3098   35.2040   14.1996 N   0  0  0  0  0  0  0  0  0  0  0  0
   43.5139   33.8350   13.7778 N   0  0  0  0  0  0  0  0  0  0  0  0
   41.7137   33.2111   15.6061 O   0  0  0  0  0  0  0  0  0  0  0  0
   43.5031   35.9812   12.9179 O   0  0  0  0  0  0  0  0  0  0  0  0
   41.3296   32.1407   11.3880 O   0  0  0  0  0  0  0  0  0  0  0  0
   50.3112   40.9400   17.0765 F   0  0  0  0  0  0  0  0  0  0  0  0
   52.4332   37.6527   14.8171 H   0  0  0  0  0  0  0  0  0  0  0  0
   50.2930   36.7014   14.0358 H   0  0  0  0  0  0  0  0  0  0  0  0
   52.4484   39.6685   16.2635 H   0  0  0  0  0  0  0  0  0  0  0  0
   48.1613   39.7951   16.1558 H   0  0  0  0  0  0  0  0  0  0  0  0
   45.1809   37.9425   13.0430 H   0  0  0  0  0  0  0  0  0  0  0  0
   39.5492   33.7813   12.3516 H   0  0  0  0  0  0  0  0  0  0  0  0
   38.3765   32.5735   12.9294 H   0  0  0  0  0  0  0  0  0  0  0  0
   40.1854   30.7608   12.4453 H   0  0  0  0  0  0  0  0  0  0  0  0
   39.4240   31.5386   11.0627 H   0  0  0  0  0  0  0  0  0  0  0  0
   43.3053   32.2884   11.7673 H   0  0  0  0  0  0  0  0  0  0  0  0
   42.4333   31.2725   12.9196 H   0  0  0  0  0  0  0  0  0  0  0  0
   41.8382   34.2925   12.6940 H   0  0  0  0  0  0  0  0  0  0  0  0
   45.5085   35.5595   16.5469 H   0  0  0  0  0  0  0  0  0  0  0  0
   45.9867   33.8514   16.6143 H   0  0  0  0  0  0  0  0  0  0  0  0
   45.7533   34.7677   18.1129 H   0  0  0  0  0  0  0  0  0  0  0  0
   48.1351   34.4012   15.1570 H   0  0  0  0  0  0  0  0  0  0  0  0
   49.2213   35.6589   15.7198 H   0  0  0  0  0  0  0  0  0  0  0  0
   48.1730   34.4902   17.6212 H   0  0  0  0  0  0  0  0  0  0  0  0
   47.6986   36.1860   17.6192 H   0  0  0  0  0  0  0  0  0  0  0  0
   39.4093   32.5834   14.9031 H   0  0  0  0  0  0  0  0  0  0  0  0
   45.6306   34.3787   14.6997 H   0  0  0  0  0  0  0  0  0  0  0  0
   44.0410   33.1628   14.3288 H   0  0  0  0  0  0  0  0  0  0  0  0
  1  2  1  0  0  0  0
  1  3  2  0  0  0  0
  2  6  2  0  0  0  0
  3  8  1  0  0  0  0
  4  6  1  0  0  0  0
  4  8  2  0  0  0  0
  5  7  1  0  0  0  0
  5 19  2  0  0  0  0
  6 20  1  0  0  0  0
  7  9  2  0  0  0  0
  7 22  1  0  0  0  0
  8 27  1  0  0  0  0
  9 17  1  0  0  0  0
  9 20  1  0  0  0  0
 10 15  1  0  0  0  0
 10 21  1  0  0  0  0
 10 24  2  0  0  0  0
 11 22  1  0  0  0  0
 11 23  1  0  0  0  0
 11 25  2  0  0  0  0
 12 13  1  0  0  0  0
 12 21  1  0  0  0  0
 13 26  1  0  0  0  0
 14 15  1  0  0  0  0
 14 26  1  0  0  0  0
 15 23  1  0  0  0  0
 16 18  1  0  0  0  0
 17 18  1  0  0  0  0
 19 20  1  0  0  0  0
  1 28  1  0  0  0  0
  2 29  1  0  0  0  0
  3 30  1  0  0  0  0
  4 31  1  0  0  0  0
  5 32  1  0  0  0  0
 12 33  1  0  0  0  0
 12 34  1  0  0  0  0
 13 35  1  0  0  0  0
 13 36  1  0  0  0  0
 14 37  1  0  0  0  0
 14 38  1  0  0  0  0
 15 39  1  0  0  0  0
 16 40  1  0  0  0  0
 16 41  1  0  0  0  0
 16 42  1  0  0  0  0
 17 43  1  0  0  0  0
 17 44  1  0  0  0  0
 18 45  1  0  0  0  0
 18 46  1  0  0  0  0
 21 47  1  0  0  0  0
 22 48  1  0  0  0  0
 23 49  1  0  0  0  0
M  END
> <Chemgauss4 Score>
-6.175858020782

> <Number of Confs>
42

> <og_smiles_field>
CCCC1=C(NC(=O)NC2COCCNC2=O)C=NN1C1=CC=CC(F)=C1

$$$$

  -OEChem-03232314423D

 32 33  0     1  0  0  0  0  0999 V2000
   48.5315   36.4326   14.5838 C   0  0  0  0  0  0  0  0  0  0  0  0
   48.3883   37.1190   15.7665 C   0  0  0  0  0  0  0  0  0  0  0  0
   46.6463   35.8297   15.3669 C   0  0  0  0  0  0  0  0  0  0  0  0
   42.2868   35.4982   13.3243 C   0  0  0  0  0  0  0  0  0  0  0  0
   41.1518   34.8295   13.1304 C   0  0  0  0  0  0  0  0  0  0  0  0
   43.1029   35.0870   14.4962 C   0  0  0  0  0  0  0  0  0  0  0  0
   41.5396   33.4380   15.0718 C   0  0  0  0  0  0  0  0  0  0  0  0
   46.5534   37.1584   17.4872 C   0  0  0  0  0  0  0  0  0  0  0  0
   39.4937   33.1400   13.6724 C   0  0  0  0  0  0  0  0  0  0  0  0
   44.4474   37.1437   14.3505 C   0  0  0  0  0  0  0  0  0  0  0  0
   45.3104   35.1795   15.5828 C   0  0  0  0  0  0  0  0  0  0  0  0
   47.4436   35.6319   14.3406 N   0  0  0  0  0  0  0  0  0  0  0  0
   42.7238   34.1209   15.2911 N   0  0  0  0  0  0  0  0  0  0  0  0
   47.1757   36.7229   16.2564 N   0  0  0  0  0  0  0  0  0  0  0  0
   40.7539   33.8129   13.9676 N   0  0  0  0  0  0  0  0  0  0  0  0
   44.2833   35.7528   14.7319 N   0  0  3  0  0  0  0  0  0  0  0  0
   41.1976   32.5302   15.8318 O   0  0  0  0  0  0  0  0  0  0  0  0
   49.3718   38.2295   16.5799 Cl  0  0  0  0  0  0  0  0  0  0  0  0
   49.3611   36.4723   13.8927 H   0  0  0  0  0  0  0  0  0  0  0  0
   42.6182   36.3003   12.6785 H   0  0  0  0  0  0  0  0  0  0  0  0
   40.4963   35.0651   12.2992 H   0  0  0  0  0  0  0  0  0  0  0  0
   45.9475   38.0407   17.2650 H   0  0  0  0  0  0  0  0  0  0  0  0
   45.9269   36.3541   17.8829 H   0  0  0  0  0  0  0  0  0  0  0  0
   47.3296   37.4005   18.2186 H   0  0  0  0  0  0  0  0  0  0  0  0
   39.6812   32.2853   13.0058 H   0  0  0  0  0  0  0  0  0  0  0  0
   39.0411   32.7820   14.6089 H   0  0  0  0  0  0  0  0  0  0  0  0
   38.8081   33.8453   13.1800 H   0  0  0  0  0  0  0  0  0  0  0  0
   44.1363   37.7919   15.1830 H   0  0  0  0  0  0  0  0  0  0  0  0
   45.5037   37.3361   14.1112 H   0  0  0  0  0  0  0  0  0  0  0  0
   43.8267   37.3574   13.4678 H   0  0  0  0  0  0  0  0  0  0  0  0
   45.3644   34.1063   15.3699 H   0  0  0  0  0  0  0  0  0  0  0  0
   44.9835   35.2889   16.6222 H   0  0  0  0  0  0  0  0  0  0  0  0
  1  2  2  0  0  0  0
  1 12  1  0  0  0  0
  2 14  1  0  0  0  0
  2 18  1  0  0  0  0
  3 11  1  0  0  0  0
  3 12  2  0  0  0  0
  3 14  1  0  0  0  0
  4  5  2  0  0  0  0
  4  6  1  0  0  0  0
  5 15  1  0  0  0  0
  6 13  2  0  0  0  0
  6 16  1  0  0  0  0
  7 13  1  0  0  0  0
  7 15  1  0  0  0  0
  7 17  2  0  0  0  0
  8 14  1  0  0  0  0
  9 15  1  0  0  0  0
 10 16  1  0  0  0  0
 11 16  1  0  0  0  0
  1 19  1  0  0  0  0
  4 20  1  0  0  0  0
  5 21  1  0  0  0  0
  8 22  1  0  0  0  0
  8 23  1  0  0  0  0
  8 24  1  0  0  0  0
  9 25  1  0  0  0  0
  9 26  1  0  0  0  0
  9 27  1  0  0  0  0
 10 28  1  0  0  0  0
 10 29  1  0  0  0  0
 10 30  1  0  0  0  0
 11 31  1  0  0  0  0
 11 32  1  0  0  0  0
M  END
> <Chemgauss4 Score>
-6.538085460663

> <Number of Confs>
95

> <og_smiles_field>
CN(CC1=NC=C(Cl)N1C)C1=NC(=O)N(C)C=C1

$$$$

  -OEChem-03232314423D

 56 58  0     1  0  0  0  0  0999 V2000
   41.2017   34.4486   11.8061 C   0  0  0  0  0  0  0  0  0  0  0  0
   39.2598   34.0296   13.1812 C   0  0  0  0  0  0  0  0  0  0  0  0
   42.0285   34.0082   12.8395 C   0  0  0  0  0  0  0  0  0  0  0  0
   40.0867   33.5890   14.2146 C   0  0  0  0  0  0  0  0  0  0  0  0
   39.8173   34.4594   11.9770 C   0  0  0  0  0  0  0  0  0  0  0  0
   41.4710   33.5783   14.0437 C   0  0  0  0  0  0  0  0  0  0  0  0
   38.9557   34.9190   10.8996 C   0  0  0  0  0  0  0  0  0  0  0  0
   44.2134   34.8355   15.2961 C   0  0  0  0  0  0  0  0  0  0  0  0
   46.8235   36.7155   13.8826 C   0  0  0  0  0  0  0  0  0  0  0  0
   48.0510   35.9094   13.4509 C   0  0  0  0  0  0  0  0  0  0  0  0
   48.6067   35.3838   15.7535 C   0  0  0  0  0  0  0  0  0  0  0  0
   41.9242   33.2801   16.6809 C   0  0  0  0  0  0  0  0  0  0  0  0
   42.3465   31.5759   15.6169 C   0  0  0  0  0  0  0  0  0  0  0  0
   46.2695   36.2525   15.2363 C   0  0  2  0  0  0  0  0  0  0  0  0
   42.4135   33.0757   15.2218 C   0  0  0  0  0  0  0  0  0  0  0  0
   47.3934   36.1746   16.3108 C   0  0  0  0  0  0  0  0  0  0  0  0
   46.8876   35.4854   17.5956 C   0  0  0  0  0  0  0  0  0  0  0  0
   47.8372   37.6035   16.7060 C   0  0  0  0  0  0  0  0  0  0  0  0
   50.2804   35.2049   14.0263 C   0  0  0  0  0  0  0  0  0  0  0  0
   36.6836   35.2826   10.2683 C   0  0  0  0  0  0  0  0  0  0  0  0
   49.0975   35.9358   14.4806 N   0  0  1  0  0  0  0  0  0  0  0  0
   45.5766   34.9913   15.0651 N   0  0  0  0  0  0  0  0  0  0  0  0
   43.8088   33.5247   15.0560 N   0  0  0  0  0  0  0  0  0  0  0  0
   39.3616   35.3175    9.7996 O   0  0  0  0  0  0  0  0  0  0  0  0
   43.4611   35.7368   15.6639 O   0  0  0  0  0  0  0  0  0  0  0  0
   42.2391   31.9090   17.0215 O   0  0  0  0  0  0  0  0  0  0  0  0
   37.6345   34.8562   11.2499 O   0  0  0  0  0  0  0  0  0  0  0  0
   41.6470   34.7812   10.8719 H   0  0  0  0  0  0  0  0  0  0  0  0
   38.1824   34.0335   13.3252 H   0  0  0  0  0  0  0  0  0  0  0  0
   43.1059   34.0023   12.6985 H   0  0  0  0  0  0  0  0  0  0  0  0
   39.6452   33.2552   15.1497 H   0  0  0  0  0  0  0  0  0  0  0  0
   47.1019   37.7792   13.9385 H   0  0  0  0  0  0  0  0  0  0  0  0
   46.0480   36.6432   13.1042 H   0  0  0  0  0  0  0  0  0  0  0  0
   47.7322   34.8752   13.2713 H   0  0  0  0  0  0  0  0  0  0  0  0
   48.4301   36.3018   12.4981 H   0  0  0  0  0  0  0  0  0  0  0  0
   49.4173   35.3735   16.4963 H   0  0  0  0  0  0  0  0  0  0  0  0
   48.3069   34.3380   15.6018 H   0  0  0  0  0  0  0  0  0  0  0  0
   42.4955   33.9899   17.2874 H   0  0  0  0  0  0  0  0  0  0  0  0
   40.8547   33.4811   16.8071 H   0  0  0  0  0  0  0  0  0  0  0  0
   41.4629   31.0257   15.2751 H   0  0  0  0  0  0  0  0  0  0  0  0
   43.2410   30.9803   15.4093 H   0  0  0  0  0  0  0  0  0  0  0  0
   45.5139   36.9635   15.5589 H   0  0  0  0  0  0  0  0  0  0  0  0
   46.0412   36.0396   17.9818 H   0  0  0  0  0  0  0  0  0  0  0  0
   47.6869   35.4737   18.3261 H   0  0  0  0  0  0  0  0  0  0  0  0
   46.5891   34.4722   17.3567 H   0  0  0  0  0  0  0  0  0  0  0  0
   46.9821   38.1446   17.0931 H   0  0  0  0  0  0  0  0  0  0  0  0
   48.2268   38.1075   15.8296 H   0  0  0  0  0  0  0  0  0  0  0  0
   48.6066   37.5368   17.4660 H   0  0  0  0  0  0  0  0  0  0  0  0
   51.0532   35.2346   14.8085 H   0  0  0  0  0  0  0  0  0  0  0  0
   50.0082   34.1594   13.8195 H   0  0  0  0  0  0  0  0  0  0  0  0
   50.6693   35.6709   13.1089 H   0  0  0  0  0  0  0  0  0  0  0  0
   35.6729   35.1829   10.6715 H   0  0  0  0  0  0  0  0  0  0  0  0
   36.7899   34.6726    9.3677 H   0  0  0  0  0  0  0  0  0  0  0  0
   36.8732   36.3298   10.0211 H   0  0  0  0  0  0  0  0  0  0  0  0
   46.1108   34.1837   14.7626 H   0  0  0  0  0  0  0  0  0  0  0  0
   44.4916   32.8580   14.7098 H   0  0  0  0  0  0  0  0  0  0  0  0
  1  3  1  0  0  0  0
  1  5  2  0  0  0  0
  2  4  2  0  0  0  0
  2  5  1  0  0  0  0
  3  6  2  0  0  0  0
  4  6  1  0  0  0  0
  5  7  1  0  0  0  0
  6 15  1  0  0  0  0
  7 24  2  0  0  0  0
  7 27  1  0  0  0  0
  8 22  1  0  0  0  0
  8 23  1  0  0  0  0
  8 25  2  0  0  0  0
  9 10  1  0  0  0  0
  9 14  1  0  0  0  0
 10 21  1  0  0  0  0
 11 16  1  0  0  0  0
 11 21  1  0  0  0  0
 12 15  1  0  0  0  0
 12 26  1  0  0  0  0
 13 15  1  0  0  0  0
 13 26  1  0  0  0  0
 14 16  1  0  0  0  0
 14 22  1  0  0  0  0
 15 23  1  0  0  0  0
 16 17  1  0  0  0  0
 16 18  1  0  0  0  0
 19 21  1  0  0  0  0
 20 27  1  0  0  0  0
  1 28  1  0  0  0  0
  2 29  1  0  0  0  0
  3 30  1  0  0  0  0
  4 31  1  0  0  0  0
  9 32  1  0  0  0  0
  9 33  1  0  0  0  0
 10 34  1  0  0  0  0
 10 35  1  0  0  0  0
 11 36  1  0  0  0  0
 11 37  1  0  0  0  0
 12 38  1  0  0  0  0
 12 39  1  0  0  0  0
 13 40  1  0  0  0  0
 13 41  1  0  0  0  0
 14 42  1  0  0  0  0
 17 43  1  0  0  0  0
 17 44  1  0  0  0  0
 17 45  1  0  0  0  0
 18 46  1  0  0  0  0
 18 47  1  0  0  0  0
 18 48  1  0  0  0  0
 19 49  1  0  0  0  0
 19 50  1  0  0  0  0
 19 51  1  0  0  0  0
 20 52  1  0  0  0  0
 20 53  1  0  0  0  0
 20 54  1  0  0  0  0
 22 55  1  0  0  0  0
 23 56  1  0  0  0  0
M  END
> <Chemgauss4 Score>
-5.472548007965

> <Number of Confs>
93

> <og_smiles_field>
COC(=O)C1=CC=C(C2(NC(=O)NC3CCN(C)CC3(C)C)COC2)C=C1

$$$$

  -OEChem-03232314423D

 52 55  0     1  0  0  0  0  0999 V2000
   41.6357   34.0569   13.3078 C   0  0  0  0  0  0  0  0  0  0  0  0
   42.9803   34.0262   13.5862 C   0  0  0  0  0  0  0  0  0  0  0  0
   41.1244   32.8931   13.9129 C   0  0  0  0  0  0  0  0  0  0  0  0
   44.0343   34.9822   13.2117 C   0  0  0  0  0  0  0  0  0  0  0  0
   47.5868   35.9791   15.5062 C   0  0  0  0  0  0  0  0  0  0  0  0
   45.2983   36.5587   16.3232 C   0  0  0  0  0  0  0  0  0  0  0  0
   47.9458   38.6582   14.3748 C   0  0  0  0  0  0  0  0  0  0  0  0
   47.4896   38.5859   16.8407 C   0  0  0  0  0  0  0  0  0  0  0  0
   44.5596   35.3950   15.6722 C   0  0  0  0  0  0  0  0  0  0  0  0
   38.5159   33.5087   14.2632 C   0  0  0  0  0  0  0  0  0  0  0  0
   38.8521   32.4557   12.5168 C   0  0  0  0  0  0  0  0  0  0  0  0
   45.7341   36.6259   13.9655 C   0  0  0  0  0  0  0  0  0  0  0  0
   48.5263   40.0499   14.5946 C   0  0  0  0  0  0  0  0  0  0  0  0
   48.0960   39.9815   16.9224 C   0  0  0  0  0  0  0  0  0  0  0  0
   39.6005   32.4722   13.8737 C   0  0  0  0  0  0  0  0  0  0  0  0
   46.9013   38.3316   15.4482 C   0  0  0  0  0  0  0  0  0  0  0  0
   46.4047   36.8948   15.3144 C   0  0  2  0  0  0  0  0  0  0  0  0
   48.3758   34.1784   16.8171 C   0  0  0  0  0  0  0  0  0  0  0  0
   42.0675   32.1754   14.5289 N   0  0  0  0  0  0  0  0  0  0  0  0
   43.1848   32.8900   14.3125 N   0  0  0  0  0  0  0  0  0  0  0  0
   37.6383   32.9280   13.2213 N   0  0  0  0  0  0  0  0  0  0  0  0
   44.7375   35.5967   14.2371 N   0  0  0  0  0  0  0  0  0  0  0  0
   44.2158   35.1807   12.0120 O   0  0  0  0  0  0  0  0  0  0  0  0
   48.6082   36.0288   14.8343 O   0  0  0  0  0  0  0  0  0  0  0  0
   49.0795   40.1663   15.9050 O   0  0  0  0  0  0  0  0  0  0  0  0
   47.3303   35.1112   16.5260 O   0  0  0  0  0  0  0  0  0  0  0  0
   41.1026   34.8122   12.7480 H   0  0  0  0  0  0  0  0  0  0  0  0
   44.6121   37.4058   16.4448 H   0  0  0  0  0  0  0  0  0  0  0  0
   45.6838   36.2844   17.3107 H   0  0  0  0  0  0  0  0  0  0  0  0
   47.5040   38.5898   13.3745 H   0  0  0  0  0  0  0  0  0  0  0  0
   48.7587   37.9226   14.4279 H   0  0  0  0  0  0  0  0  0  0  0  0
   48.2747   37.8456   17.0410 H   0  0  0  0  0  0  0  0  0  0  0  0
   46.7196   38.4666   17.6110 H   0  0  0  0  0  0  0  0  0  0  0  0
   45.0119   34.4325   15.9356 H   0  0  0  0  0  0  0  0  0  0  0  0
   43.4984   35.3728   15.9371 H   0  0  0  0  0  0  0  0  0  0  0  0
   38.1269   33.4273   15.2823 H   0  0  0  0  0  0  0  0  0  0  0  0
   38.7759   34.5569   14.0719 H   0  0  0  0  0  0  0  0  0  0  0  0
   39.2193   33.1668   11.7669 H   0  0  0  0  0  0  0  0  0  0  0  0
   38.7511   31.4738   12.0450 H   0  0  0  0  0  0  0  0  0  0  0  0
   45.1957   37.5020   13.5856 H   0  0  0  0  0  0  0  0  0  0  0  0
   46.4233   36.2791   13.1880 H   0  0  0  0  0  0  0  0  0  0  0  0
   49.3306   40.2348   13.8755 H   0  0  0  0  0  0  0  0  0  0  0  0
   47.7667   40.8267   14.4484 H   0  0  0  0  0  0  0  0  0  0  0  0
   47.3263   40.7568   16.8313 H   0  0  0  0  0  0  0  0  0  0  0  0
   48.5883   40.1170   17.8907 H   0  0  0  0  0  0  0  0  0  0  0  0
   39.4559   31.4891   14.4402 H   0  0  0  0  0  0  0  0  0  0  0  0
   46.0419   39.0008   15.3089 H   0  0  0  0  0  0  0  0  0  0  0  0
   48.0700   33.5338   17.6448 H   0  0  0  0  0  0  0  0  0  0  0  0
   49.2867   34.7214   17.0815 H   0  0  0  0  0  0  0  0  0  0  0  0
   48.5629   33.5663   15.9316 H   0  0  0  0  0  0  0  0  0  0  0  0
   44.0566   32.5413   14.6916 H   0  0  0  0  0  0  0  0  0  0  0  0
   37.0593   32.1637   13.5709 H   0  0  0  0  0  0  0  0  0  0  0  0
  1  2  2  0  0  0  0
  1  3  1  0  0  0  0
  2  4  1  0  0  0  0
  2 20  1  0  0  0  0
  3 15  1  0  0  0  0
  3 19  2  0  0  0  0
  4 22  1  0  0  0  0
  4 23  2  0  0  0  0
  5 17  1  0  0  0  0
  5 24  2  0  0  0  0
  5 26  1  0  0  0  0
  6  9  1  0  0  0  0
  6 17  1  0  0  0  0
  7 13  1  0  0  0  0
  7 16  1  0  0  0  0
  8 14  1  0  0  0  0
  8 16  1  0  0  0  0
  9 22  1  0  0  0  0
 10 15  1  0  0  0  0
 10 21  1  0  0  0  0
 11 15  1  0  0  0  0
 11 21  1  0  0  0  0
 12 17  1  0  0  0  0
 12 22  1  0  0  0  0
 13 25  1  0  0  0  0
 14 25  1  0  0  0  0
 16 17  1  0  0  0  0
 18 26  1  0  0  0  0
 19 20  1  0  0  0  0
  1 27  1  0  0  0  0
  6 28  1  0  0  0  0
  6 29  1  0  0  0  0
  7 30  1  0  0  0  0
  7 31  1  0  0  0  0
  8 32  1  0  0  0  0
  8 33  1  0  0  0  0
  9 34  1  0  0  0  0
  9 35  1  0  0  0  0
 10 36  1  0  0  0  0
 10 37  1  0  0  0  0
 11 38  1  0  0  0  0
 11 39  1  0  0  0  0
 12 40  1  0  0  0  0
 12 41  1  0  0  0  0
 13 42  1  0  0  0  0
 13 43  1  0  0  0  0
 14 44  1  0  0  0  0
 14 45  1  0  0  0  0
 15 46  1  0  0  0  0
 16 47  1  0  0  0  0
 18 48  1  0  0  0  0
 18 49  1  0  0  0  0
 18 50  1  0  0  0  0
 20 51  1  0  0  0  0
 21 52  1  0  0  0  0
M  END
> <Chemgauss4 Score>
-7.469053268433

> <Number of Confs>
200

> <og_smiles_field>
COC(=O)C1(C2CCOCC2)CCN(C(=O)C2=CC(C3CNC3)=NN2)C1

$$$$

  -OEChem-03232314423D

 48 49  0     1  0  0  0  0  0999 V2000
   48.2717   38.4137   17.4183 C   0  0  0  0  0  0  0  0  0  0  0  0
   40.5578   33.3681   14.3822 C   0  0  0  0  0  0  0  0  0  0  0  0
   45.0897   35.3855   14.1706 C   0  0  0  0  0  0  0  0  0  0  0  0
   46.7935   36.8585   18.6477 C   0  0  0  0  0  0  0  0  0  0  0  0
   48.5993   35.9695   17.0993 C   0  0  0  0  0  0  0  0  0  0  0  0
   45.7022   36.7101   17.5792 C   0  0  0  0  0  0  0  0  0  0  0  0
   47.4192   35.2168   16.4711 C   0  0  0  0  0  0  0  0  0  0  0  0
   42.9616   33.9733   14.3983 C   0  0  0  0  0  0  0  0  0  0  0  0
   43.9135   34.4771   12.1890 C   0  0  0  0  0  0  0  0  0  0  0  0
   48.1914   37.0913   18.0699 C   0  0  1  0  0  0  0  0  0  0  0  0
   41.5865   34.2964   13.8253 C   0  0  1  0  0  0  0  0  0  0  0  0
   46.2136   36.1260   16.2559 C   0  0  1  0  0  0  0  0  0  0  0  0
   42.5053   34.8011   11.6662 C   0  0  0  0  0  0  0  0  0  0  0  0
   42.3749   34.3083   10.2196 C   0  0  0  0  0  0  0  0  0  0  0  0
   42.2170   36.3090   11.6991 C   0  0  0  0  0  0  0  0  0  0  0  0
   38.2639   32.8141   14.2610 C   0  0  0  0  0  0  0  0  0  0  0  0
   48.3348   39.4529   16.9062 N   0  0  0  0  0  0  0  0  0  0  0  0
   44.0077   34.6664   13.6379 N   0  0  0  0  0  0  0  0  0  0  0  0
   45.1570   35.4282   15.5580 N   0  0  0  0  0  0  0  0  0  0  0  0
   40.7933   32.5070   15.2190 O   0  0  0  0  0  0  0  0  0  0  0  0
   45.9339   35.9447   13.4627 O   0  0  0  0  0  0  0  0  0  0  0  0
   41.5263   34.0693   12.4213 O   0  0  0  0  0  0  0  0  0  0  0  0
   39.3473   33.6360   13.8151 O   0  0  0  0  0  0  0  0  0  0  0  0
   46.5184   37.6911   19.3235 H   0  0  0  0  0  0  0  0  0  0  0  0
   46.7932   35.9553   19.2860 H   0  0  0  0  0  0  0  0  0  0  0  0
   49.2518   35.2418   17.6213 H   0  0  0  0  0  0  0  0  0  0  0  0
   49.2294   36.3865   16.2873 H   0  0  0  0  0  0  0  0  0  0  0  0
   44.8945   36.0709   17.9830 H   0  0  0  0  0  0  0  0  0  0  0  0
   45.2434   37.6998   17.4006 H   0  0  0  0  0  0  0  0  0  0  0  0
   47.7442   34.7830   15.5154 H   0  0  0  0  0  0  0  0  0  0  0  0
   47.1474   34.3756   17.1255 H   0  0  0  0  0  0  0  0  0  0  0  0
   42.9711   34.2311   15.4586 H   0  0  0  0  0  0  0  0  0  0  0  0
   43.1823   32.9017   14.3170 H   0  0  0  0  0  0  0  0  0  0  0  0
   44.1473   33.4185   12.0161 H   0  0  0  0  0  0  0  0  0  0  0  0
   44.6714   35.0660   11.6615 H   0  0  0  0  0  0  0  0  0  0  0  0
   48.9134   37.0906   18.9120 H   0  0  0  0  0  0  0  0  0  0  0  0
   41.2752   35.3195   14.0608 H   0  0  0  0  0  0  0  0  0  0  0  0
   46.5086   36.9588   15.5948 H   0  0  0  0  0  0  0  0  0  0  0  0
   41.3799   34.5362    9.8472 H   0  0  0  0  0  0  0  0  0  0  0  0
   42.5363   33.2344   10.1865 H   0  0  0  0  0  0  0  0  0  0  0  0
   43.1160   34.8050    9.5992 H   0  0  0  0  0  0  0  0  0  0  0  0
   41.2151   36.4931   11.3227 H   0  0  0  0  0  0  0  0  0  0  0  0
   42.9398   36.8282   11.0768 H   0  0  0  0  0  0  0  0  0  0  0  0
   42.2927   36.6686   12.7211 H   0  0  0  0  0  0  0  0  0  0  0  0
   37.3458   33.1100   13.7476 H   0  0  0  0  0  0  0  0  0  0  0  0
   38.1419   32.9250   15.3414 H   0  0  0  0  0  0  0  0  0  0  0  0
   38.4895   31.7710   14.0270 H   0  0  0  0  0  0  0  0  0  0  0  0
   44.4444   34.9563   16.0979 H   0  0  0  0  0  0  0  0  0  0  0  0
  1 10  1  0  0  0  0
  1 17  3  0  0  0  0
  2 11  1  0  0  0  0
  2 20  2  0  0  0  0
  2 23  1  0  0  0  0
  3 18  1  0  0  0  0
  3 19  1  0  0  0  0
  3 21  2  0  0  0  0
  4  6  1  0  0  0  0
  4 10  1  0  0  0  0
  5  7  1  0  0  0  0
  5 10  1  0  0  0  0
  6 12  1  0  0  0  0
  7 12  1  0  0  0  0
  8 11  1  0  0  0  0
  8 18  1  0  0  0  0
  9 13  1  0  0  0  0
  9 18  1  0  0  0  0
 11 22  1  0  0  0  0
 12 19  1  0  0  0  0
 13 14  1  0  0  0  0
 13 15  1  0  0  0  0
 13 22  1  0  0  0  0
 16 23  1  0  0  0  0
  4 24  1  0  0  0  0
  4 25  1  0  0  0  0
  5 26  1  0  0  0  0
  5 27  1  0  0  0  0
  6 28  1  0  0  0  0
  6 29  1  0  0  0  0
  7 30  1  0  0  0  0
  7 31  1  0  0  0  0
  8 32  1  0  0  0  0
  8 33  1  0  0  0  0
  9 34  1  0  0  0  0
  9 35  1  0  0  0  0
 10 36  1  0  0  0  0
 11 37  1  0  0  0  0
 12 38  1  0  0  0  0
 14 39  1  0  0  0  0
 14 40  1  0  0  0  0
 14 41  1  0  0  0  0
 15 42  1  0  0  0  0
 15 43  1  0  0  0  0
 15 44  1  0  0  0  0
 16 45  1  0  0  0  0
 16 46  1  0  0  0  0
 16 47  1  0  0  0  0
 19 48  1  0  0  0  0
M  END
> <Chemgauss4 Score>
-5.670157909393

> <Number of Confs>
113

> <og_smiles_field>
COC(=O)C1CN(C(=O)N[C@H]2CC[C@H](C#N)CC2)CC(C)(C)O1

$$$$

  -OEChem-03232314423D

 46 48  0     1  0  0  0  0  0999 V2000
   39.8943   33.0763   13.3166 C   0  0  0  0  0  0  0  0  0  0  0  0
   41.0648   32.3474   13.5269 C   0  0  0  0  0  0  0  0  0  0  0  0
   39.9659   34.4089   12.9106 C   0  0  0  0  0  0  0  0  0  0  0  0
   42.3070   32.9511   13.3314 C   0  0  0  0  0  0  0  0  0  0  0  0
   41.2081   35.0126   12.7151 C   0  0  0  0  0  0  0  0  0  0  0  0
   42.3786   34.2837   12.9255 C   0  0  0  0  0  0  0  0  0  0  0  0
   43.0572   37.6941   13.5403 C   0  0  0  0  0  0  0  0  0  0  0  0
   45.4371   35.2159   14.5046 C   0  0  0  0  0  0  0  0  0  0  0  0
   46.3391   37.8685   15.6036 C   0  0  0  0  0  0  0  0  0  0  0  0
   46.8536   36.1995   17.5675 C   0  0  0  0  0  0  0  0  0  0  0  0
   46.9295   34.9640   16.6582 C   0  0  0  0  0  0  0  0  0  0  0  0
   45.8186   36.8119   16.5929 C   0  0  2  0  0  0  0  0  0  0  0  0
   45.5504   35.3601   16.0497 C   0  0  1  0  0  0  0  0  0  0  0  0
   44.3719   34.6656   16.7412 C   0  0  0  0  0  0  0  0  0  0  0  0
   47.2347   40.0521   15.4848 C   0  0  0  0  0  0  0  0  0  0  0  0
   43.7153   34.9342   12.7151 C   0  0  0  0  0  0  0  0  0  0  0  0
   43.3416   36.5833   14.5095 C   0  0  0  0  0  0  0  0  0  0  0  0
   43.9386   38.0846   12.5763 N   0  0  0  0  0  0  0  0  0  0  0  0
   41.9157   38.3870   13.5481 N   0  0  0  0  0  0  0  0  0  0  0  0
   43.3490   39.0779   11.9227 N   0  0  0  0  0  0  0  0  0  0  0  0
   42.1622   39.2217   12.5287 N   0  0  0  0  0  0  0  0  0  0  0  0
   44.2132   35.5634   13.9317 N   0  0  0  0  0  0  0  0  0  0  0  0
   46.4110   34.8097   13.8650 O   0  0  0  0  0  0  0  0  0  0  0  0
   46.3880   37.7073   14.3917 O   0  0  0  0  0  0  0  0  0  0  0  0
   46.7258   38.9825   16.2881 O   0  0  0  0  0  0  0  0  0  0  0  0
   38.9272   32.6057   13.4675 H   0  0  0  0  0  0  0  0  0  0  0  0
   41.0092   31.3095   13.8419 H   0  0  0  0  0  0  0  0  0  0  0  0
   39.0548   34.9764   12.7457 H   0  0  0  0  0  0  0  0  0  0  0  0
   43.2137   32.3755   13.4979 H   0  0  0  0  0  0  0  0  0  0  0  0
   41.2542   36.0514   12.3989 H   0  0  0  0  0  0  0  0  0  0  0  0
   46.4916   36.0114   18.5848 H   0  0  0  0  0  0  0  0  0  0  0  0
   47.7975   36.7584   17.6345 H   0  0  0  0  0  0  0  0  0  0  0  0
   47.7813   34.9490   15.9646 H   0  0  0  0  0  0  0  0  0  0  0  0
   46.9322   34.0124   17.2123 H   0  0  0  0  0  0  0  0  0  0  0  0
   44.9623   37.2262   17.1382 H   0  0  0  0  0  0  0  0  0  0  0  0
   44.4625   34.7735   17.8206 H   0  0  0  0  0  0  0  0  0  0  0  0
   44.3675   33.6072   16.4872 H   0  0  0  0  0  0  0  0  0  0  0  0
   43.4360   35.1155   16.4145 H   0  0  0  0  0  0  0  0  0  0  0  0
   47.5137   40.8906   16.1276 H   0  0  0  0  0  0  0  0  0  0  0  0
   46.4711   40.3663   14.7688 H   0  0  0  0  0  0  0  0  0  0  0  0
   48.1166   39.7016   14.9436 H   0  0  0  0  0  0  0  0  0  0  0  0
   44.4567   34.1965   12.3893 H   0  0  0  0  0  0  0  0  0  0  0  0
   43.6597   35.7043   11.9386 H   0  0  0  0  0  0  0  0  0  0  0  0
   43.8287   36.9721   15.4104 H   0  0  0  0  0  0  0  0  0  0  0  0
   42.4158   36.0919   14.8267 H   0  0  0  0  0  0  0  0  0  0  0  0
   41.4899   39.9219   12.2343 H   0  0  0  0  0  0  0  0  0  0  0  0
  1  2  2  0  0  0  0
  1  3  1  0  0  0  0
  2  4  1  0  0  0  0
  3  5  2  0  0  0  0
  4  6  2  0  0  0  0
  5  6  1  0  0  0  0
  6 16  1  0  0  0  0
  7 17  1  0  0  0  0
  7 18  1  0  0  0  0
  7 19  2  0  0  0  0
  8 13  1  0  0  0  0
  8 22  1  0  0  0  0
  8 23  2  0  0  0  0
  9 12  1  0  0  0  0
  9 24  2  0  0  0  0
  9 25  1  0  0  0  0
 10 11  1  0  0  0  0
 10 12  1  0  0  0  0
 11 13  1  0  0  0  0
 12 13  1  0  0  0  0
 13 14  1  0  0  0  0
 15 25  1  0  0  0  0
 16 22  1  0  0  0  0
 17 22  1  0  0  0  0
 18 20  2  0  0  0  0
 19 21  1  0  0  0  0
 20 21  1  0  0  0  0
  1 26  1  0  0  0  0
  2 27  1  0  0  0  0
  3 28  1  0  0  0  0
  4 29  1  0  0  0  0
  5 30  1  0  0  0  0
 10 31  1  0  0  0  0
 10 32  1  0  0  0  0
 11 33  1  0  0  0  0
 11 34  1  0  0  0  0
 12 35  1  0  0  0  0
 14 36  1  0  0  0  0
 14 37  1  0  0  0  0
 14 38  1  0  0  0  0
 15 39  1  0  0  0  0
 15 40  1  0  0  0  0
 15 41  1  0  0  0  0
 16 42  1  0  0  0  0
 16 43  1  0  0  0  0
 17 44  1  0  0  0  0
 17 45  1  0  0  0  0
 21 46  1  0  0  0  0
M  END
> <Chemgauss4 Score>
-6.421655654907

> <Number of Confs>
96

> <og_smiles_field>
COC(=O)[C@@H]1CC[C@]1(C)C(=O)N(CC1=CC=CC=C1)CC1=NNN=N1

$$$$

  -OEChem-03232314423D

 42 44  0     1  0  0  0  0  0999 V2000
   44.1939   35.8354   17.1978 C   0  0  0  0  0  0  0  0  0  0  0  0
   37.8713   32.7576   13.2500 C   0  0  0  0  0  0  0  0  0  0  0  0
   37.7787   33.0201   11.9057 C   0  0  0  0  0  0  0  0  0  0  0  0
   47.6735   35.4489   16.8908 C   0  0  0  0  0  0  0  0  0  0  0  0
   46.3082   35.1813   16.6698 C   0  0  0  0  0  0  0  0  0  0  0  0
   45.5685   36.0578   17.3820 C   0  0  0  0  0  0  0  0  0  0  0  0
   44.1583   34.7627   16.3238 C   0  0  0  0  0  0  0  0  0  0  0  0
   47.6364   36.5165   17.7602 C   0  0  0  0  0  0  0  0  0  0  0  0
   39.6791   32.1509   12.3629 C   0  0  0  0  0  0  0  0  0  0  0  0
   42.9503   34.0935   15.7760 C   0  0  0  0  0  0  0  0  0  0  0  0
   48.7862   34.7120   16.2927 C   0  0  0  0  0  0  0  0  0  0  0  0
   48.7097   37.2982   18.3987 C   0  0  0  0  0  0  0  0  0  0  0  0
   42.2058   32.3832   12.7549 C   0  0  0  0  0  0  0  0  0  0  0  0
   42.1139   32.2990   14.2807 C   0  0  0  0  0  0  0  0  0  0  0  0
   41.0728   31.6255   12.0171 C   0  0  2  0  0  0  0  0  0  0  0  0
   41.2925   31.6890   10.5014 C   0  0  0  0  0  0  0  0  0  0  0  0
   39.0912   32.2004   13.5368 N   0  0  0  0  0  0  0  0  0  0  0  0
   45.4392   34.3626   16.0010 N   0  0  0  0  0  0  0  0  0  0  0  0
   43.1800   33.0310   14.9108 N   0  0  0  0  0  0  0  0  0  0  0  0
   41.8387   34.5123   16.0886 O   0  0  0  0  0  0  0  0  0  0  0  0
   38.9458   32.6304   11.3212 O   0  0  0  0  0  0  0  0  0  0  0  0
   46.3672   36.9089   18.0772 O   0  0  0  0  0  0  0  0  0  0  0  0
   41.1828   30.2423   12.3828 O   0  0  0  0  0  0  0  0  0  0  0  0
   41.1908   32.9555   10.0389 F   0  0  0  0  0  0  0  0  0  0  0  0
   40.3673   30.9484    9.8472 F   0  0  0  0  0  0  0  0  0  0  0  0
   42.5064   31.2174   10.1427 F   0  0  0  0  0  0  0  0  0  0  0  0
   43.3552   36.3640   17.6265 H   0  0  0  0  0  0  0  0  0  0  0  0
   37.1338   32.9374   14.0178 H   0  0  0  0  0  0  0  0  0  0  0  0
   37.0281   33.4409   11.2540 H   0  0  0  0  0  0  0  0  0  0  0  0
   49.1005   35.1546   15.3276 H   0  0  0  0  0  0  0  0  0  0  0  0
   49.6824   34.6877   16.9446 H   0  0  0  0  0  0  0  0  0  0  0  0
   48.5384   33.6494   16.0959 H   0  0  0  0  0  0  0  0  0  0  0  0
   49.0024   38.1597   17.7747 H   0  0  0  0  0  0  0  0  0  0  0  0
   48.4087   37.6897   19.3866 H   0  0  0  0  0  0  0  0  0  0  0  0
   49.6162   36.6929   18.5769 H   0  0  0  0  0  0  0  0  0  0  0  0
   43.1735   31.9539   12.4594 H   0  0  0  0  0  0  0  0  0  0  0  0
   42.2396   33.4361   12.4486 H   0  0  0  0  0  0  0  0  0  0  0  0
   41.1761   32.7214   14.6522 H   0  0  0  0  0  0  0  0  0  0  0  0
   42.1888   31.2629   14.6246 H   0  0  0  0  0  0  0  0  0  0  0  0
   45.7188   33.6077   15.3871 H   0  0  0  0  0  0  0  0  0  0  0  0
   44.1333   32.7850   14.6526 H   0  0  0  0  0  0  0  0  0  0  0  0
   41.0271   30.2057   13.3365 H   0  0  0  0  0  0  0  0  0  0  0  0
  1  6  1  0  0  0  0
  1  7  2  0  0  0  0
  2  3  2  0  0  0  0
  2 17  1  0  0  0  0
  3 21  1  0  0  0  0
  4  5  1  0  0  0  0
  4  8  2  0  0  0  0
  4 11  1  0  0  0  0
  5  6  2  0  0  0  0
  5 18  1  0  0  0  0
  6 22  1  0  0  0  0
  7 10  1  0  0  0  0
  7 18  1  0  0  0  0
  8 12  1  0  0  0  0
  8 22  1  0  0  0  0
  9 15  1  0  0  0  0
  9 17  2  0  0  0  0
  9 21  1  0  0  0  0
 10 19  1  0  0  0  0
 10 20  2  0  0  0  0
 13 14  1  0  0  0  0
 13 15  1  0  0  0  0
 14 19  1  0  0  0  0
 15 16  1  0  0  0  0
 15 23  1  0  0  0  0
 16 24  1  0  0  0  0
 16 25  1  0  0  0  0
 16 26  1  0  0  0  0
  1 27  1  0  0  0  0
  2 28  1  0  0  0  0
  3 29  1  0  0  0  0
 11 30  1  0  0  0  0
 11 31  1  0  0  0  0
 11 32  1  0  0  0  0
 12 33  1  0  0  0  0
 12 34  1  0  0  0  0
 12 35  1  0  0  0  0
 13 36  1  0  0  0  0
 13 37  1  0  0  0  0
 14 38  1  0  0  0  0
 14 39  1  0  0  0  0
 18 40  1  0  0  0  0
 19 41  1  0  0  0  0
 23 42  1  0  0  0  0
M  END
> <Chemgauss4 Score>
-6.058726310730

> <Number of Confs>
200

> <og_smiles_field>
CC1=C(C)C2=C(C=C(C(=O)NCCC(O)(C3=NC=CO3)C(F)(F)F)N2)O1

$$$$

  -OEChem-03232314423D

 61 64  0     1  0  0  0  0  0999 V2000
   48.1564   40.0670   14.9415 C   0  0  0  0  0  0  0  0  0  0  0  0
   36.7219   33.9021   12.9989 C   0  0  0  0  0  0  0  0  0  0  0  0
   36.6110   33.1035   11.8488 C   0  0  0  0  0  0  0  0  0  0  0  0
   37.9053   33.9213   13.7425 C   0  0  0  0  0  0  0  0  0  0  0  0
   37.6827   32.3163   11.4252 C   0  0  0  0  0  0  0  0  0  0  0  0
   38.9658   33.1455   13.3080 C   0  0  0  0  0  0  0  0  0  0  0  0
   38.8470   32.3617   12.1676 C   0  0  0  0  0  0  0  0  0  0  0  0
   49.3464   38.7200   16.5471 C   0  0  0  0  0  0  0  0  0  0  0  0
   42.3906   33.8292   15.0008 C   0  0  0  0  0  0  0  0  0  0  0  0
   44.7590   35.3609   16.6949 C   0  0  0  0  0  0  0  0  0  0  0  0
   45.5685   35.6068   14.3126 C   0  0  0  0  0  0  0  0  0  0  0  0
   46.2054   35.3493   17.1888 C   0  0  0  0  0  0  0  0  0  0  0  0
   47.0170   35.6074   14.8026 C   0  0  0  0  0  0  0  0  0  0  0  0
   48.5567   36.2921   16.7449 C   0  0  0  0  0  0  0  0  0  0  0  0
   46.9772   37.6957   16.3600 C   0  0  0  0  0  0  0  0  0  0  0  0
   40.9906   32.2502   12.7173 C   0  0  0  0  0  0  0  0  0  0  0  0
   40.3006   32.9126   13.9184 C   0  0  1  0  0  0  0  0  0  0  0  0
   44.6576   34.8250   15.2635 C   0  0  0  0  0  0  0  0  0  0  0  0
   47.0985   36.1520   16.2369 C   0  0  0  0  0  0  0  0  0  0  0  0
   47.0286   41.7433   17.2290 C   0  0  0  0  0  0  0  0  0  0  0  0
   49.9518   41.0897   16.2855 C   0  0  0  0  0  0  0  0  0  0  0  0
   41.0302   34.1502   14.4099 C   0  0  0  0  0  0  0  0  0  0  0  0
   47.7436   40.4036   17.3722 C   0  0  0  0  0  0  0  0  0  0  0  0
   48.7879   40.0915   16.2769 C   0  0  1  0  0  0  0  0  0  0  0  0
   47.6604   40.0466   13.8924 N   0  0  0  0  0  0  0  0  0  0  0  0
   48.4150   37.7191   16.5365 N   0  0  0  0  0  0  0  0  0  0  0  0
   43.2917   34.8658   14.8003 N   0  0  0  0  0  0  0  0  0  0  0  0
   50.5465   38.5452   16.7525 O   0  0  0  0  0  0  0  0  0  0  0  0
   42.6391   32.7766   15.5823 O   0  0  0  0  0  0  0  0  0  0  0  0
   39.9793   31.6419   11.8784 O   0  0  0  0  0  0  0  0  0  0  0  0
   35.8749   34.5033   13.3184 H   0  0  0  0  0  0  0  0  0  0  0  0
   35.6808   33.0970   11.2872 H   0  0  0  0  0  0  0  0  0  0  0  0
   37.9784   34.5242   14.6410 H   0  0  0  0  0  0  0  0  0  0  0  0
   37.6001   31.6965   10.5395 H   0  0  0  0  0  0  0  0  0  0  0  0
   44.1461   34.7510   17.3696 H   0  0  0  0  0  0  0  0  0  0  0  0
   44.3667   36.3851   16.7380 H   0  0  0  0  0  0  0  0  0  0  0  0
   45.2121   36.6408   14.2231 H   0  0  0  0  0  0  0  0  0  0  0  0
   45.5318   35.1660   13.3089 H   0  0  0  0  0  0  0  0  0  0  0  0
   46.2452   35.7616   18.2043 H   0  0  0  0  0  0  0  0  0  0  0  0
   46.5627   34.3138   17.2528 H   0  0  0  0  0  0  0  0  0  0  0  0
   47.4124   34.5842   14.7706 H   0  0  0  0  0  0  0  0  0  0  0  0
   47.6311   36.2063   14.1192 H   0  0  0  0  0  0  0  0  0  0  0  0
   48.7306   36.0431   17.7966 H   0  0  0  0  0  0  0  0  0  0  0  0
   49.3302   35.8329   16.1233 H   0  0  0  0  0  0  0  0  0  0  0  0
   46.6346   38.2237   15.4665 H   0  0  0  0  0  0  0  0  0  0  0  0
   46.4449   38.0694   17.2401 H   0  0  0  0  0  0  0  0  0  0  0  0
   41.5414   32.9730   12.1010 H   0  0  0  0  0  0  0  0  0  0  0  0
   41.6962   31.4772   13.0404 H   0  0  0  0  0  0  0  0  0  0  0  0
   40.1924   32.1861   14.7331 H   0  0  0  0  0  0  0  0  0  0  0  0
   44.9493   33.7679   15.2529 H   0  0  0  0  0  0  0  0  0  0  0  0
   46.5229   41.8302   16.2629 H   0  0  0  0  0  0  0  0  0  0  0  0
   46.2701   41.8446   18.0124 H   0  0  0  0  0  0  0  0  0  0  0  0
   47.7232   42.5813   17.3365 H   0  0  0  0  0  0  0  0  0  0  0  0
   50.4386   41.1268   17.2683 H   0  0  0  0  0  0  0  0  0  0  0  0
   49.6028   42.1039   16.0595 H   0  0  0  0  0  0  0  0  0  0  0  0
   50.7270   40.8245   15.5582 H   0  0  0  0  0  0  0  0  0  0  0  0
   40.4282   34.6509   15.1768 H   0  0  0  0  0  0  0  0  0  0  0  0
   41.1688   34.8494   13.5775 H   0  0  0  0  0  0  0  0  0  0  0  0
   48.2285   40.3790   18.3576 H   0  0  0  0  0  0  0  0  0  0  0  0
   46.9827   39.6110   17.3932 H   0  0  0  0  0  0  0  0  0  0  0  0
   42.9740   35.6936   14.3033 H   0  0  0  0  0  0  0  0  0  0  0  0
  1 24  1  0  0  0  0
  1 25  3  0  0  0  0
  2  3  2  0  0  0  0
  2  4  1  0  0  0  0
  3  5  1  0  0  0  0
  4  6  2  0  0  0  0
  5  7  2  0  0  0  0
  6  7  1  0  0  0  0
  6 17  1  0  0  0  0
  7 30  1  0  0  0  0
  8 24  1  0  0  0  0
  8 26  1  0  0  0  0
  8 28  2  0  0  0  0
  9 22  1  0  0  0  0
  9 27  1  0  0  0  0
  9 29  2  0  0  0  0
 10 12  1  0  0  0  0
 10 18  1  0  0  0  0
 11 13  1  0  0  0  0
 11 18  1  0  0  0  0
 12 19  1  0  0  0  0
 13 19  1  0  0  0  0
 14 19  1  0  0  0  0
 14 26  1  0  0  0  0
 15 19  1  0  0  0  0
 15 26  1  0  0  0  0
 16 17  1  0  0  0  0
 16 30  1  0  0  0  0
 17 22  1  0  0  0  0
 18 27  1  0  0  0  0
 20 23  1  0  0  0  0
 21 24  1  0  0  0  0
 23 24  1  0  0  0  0
  2 31  1  0  0  0  0
  3 32  1  0  0  0  0
  4 33  1  0  0  0  0
  5 34  1  0  0  0  0
 10 35  1  0  0  0  0
 10 36  1  0  0  0  0
 11 37  1  0  0  0  0
 11 38  1  0  0  0  0
 12 39  1  0  0  0  0
 12 40  1  0  0  0  0
 13 41  1  0  0  0  0
 13 42  1  0  0  0  0
 14 43  1  0  0  0  0
 14 44  1  0  0  0  0
 15 45  1  0  0  0  0
 15 46  1  0  0  0  0
 16 47  1  0  0  0  0
 16 48  1  0  0  0  0
 17 49  1  0  0  0  0
 18 50  1  0  0  0  0
 20 51  1  0  0  0  0
 20 52  1  0  0  0  0
 20 53  1  0  0  0  0
 21 54  1  0  0  0  0
 21 55  1  0  0  0  0
 21 56  1  0  0  0  0
 22 57  1  0  0  0  0
 22 58  1  0  0  0  0
 23 59  1  0  0  0  0
 23 60  1  0  0  0  0
 27 61  1  0  0  0  0
M  END
> <Chemgauss4 Score>
-5.815290451050

> <Number of Confs>
200

> <og_smiles_field>
CCC(C)(C#N)C(=O)N1CC2(CCC(NC(=O)CC3COC4=CC=CC=C43)CC2)C1

$$$$

  -OEChem-03232314423D

 33 36  0     0  0  0  0  0  0999 V2000
   45.7409   35.1136   16.8268 C   0  0  0  0  0  0  0  0  0  0  0  0
   45.8258   35.9737   14.5707 C   0  0  0  0  0  0  0  0  0  0  0  0
   47.6976   37.1516   17.5026 C   0  0  0  0  0  0  0  0  0  0  0  0
   44.6086   34.3677   16.4998 C   0  0  0  0  0  0  0  0  0  0  0  0
   44.6935   35.2277   14.2436 C   0  0  0  0  0  0  0  0  0  0  0  0
   48.8240   37.8995   17.8536 C   0  0  0  0  0  0  0  0  0  0  0  0
   48.4772   36.9685   15.2164 C   0  0  0  0  0  0  0  0  0  0  0  0
   49.6257   37.7227   15.5433 C   0  0  0  0  0  0  0  0  0  0  0  0
   46.3495   35.9167   15.8622 C   0  0  0  0  0  0  0  0  0  0  0  0
   47.5243   36.6911   16.2019 C   0  0  0  0  0  0  0  0  0  0  0  0
   44.0849   34.4247   15.2082 C   0  0  0  0  0  0  0  0  0  0  0  0
   49.7738   38.1723   16.8571 C   0  0  0  0  0  0  0  0  0  0  0  0
   50.7470   38.1549   14.7640 C   0  0  0  0  0  0  0  0  0  0  0  0
   41.8573   34.1527   13.7363 C   0  0  0  0  0  0  0  0  0  0  0  0
   41.5323   33.7553   15.7267 C   0  0  0  0  0  0  0  0  0  0  0  0
   42.7886   33.5708   14.8337 C   0  0  0  0  0  0  0  0  0  0  0  0
   51.6875   38.8679   15.3748 N   0  0  0  0  0  0  0  0  0  0  0  0
   40.6924   33.9960   14.5761 O   0  0  0  0  0  0  0  0  0  0  0  0
   43.1310   32.1803   14.6042 O   0  0  0  0  0  0  0  0  0  0  0  0
   51.2482   39.0532   16.9607 S   0  0  0  0  0  0  0  0  0  0  0  0
   50.9465   37.8110   13.1008 Cl  0  0  0  0  0  0  0  0  0  0  0  0
   46.1372   35.0587   17.8380 H   0  0  0  0  0  0  0  0  0  0  0  0
   46.2890   36.5951   13.8078 H   0  0  0  0  0  0  0  0  0  0  0  0
   46.9561   36.9359   18.2694 H   0  0  0  0  0  0  0  0  0  0  0  0
   44.1401   33.7449   17.2570 H   0  0  0  0  0  0  0  0  0  0  0  0
   44.2907   35.2771   13.2356 H   0  0  0  0  0  0  0  0  0  0  0  0
   48.9543   38.2561   18.8708 H   0  0  0  0  0  0  0  0  0  0  0  0
   48.3367   36.6070   14.2001 H   0  0  0  0  0  0  0  0  0  0  0  0
   42.0163   35.2017   13.4646 H   0  0  0  0  0  0  0  0  0  0  0  0
   41.7804   33.5522   12.8249 H   0  0  0  0  0  0  0  0  0  0  0  0
   41.2169   32.8631   16.2762 H   0  0  0  0  0  0  0  0  0  0  0  0
   41.5360   34.6149   16.4051 H   0  0  0  0  0  0  0  0  0  0  0  0
   43.7588   32.1880   13.8722 H   0  0  0  0  0  0  0  0  0  0  0  0
  1  4  1  0  0  0  0
  1  9  2  0  0  0  0
  2  5  2  0  0  0  0
  2  9  1  0  0  0  0
  3  6  1  0  0  0  0
  3 10  2  0  0  0  0
  4 11  2  0  0  0  0
  5 11  1  0  0  0  0
  6 12  2  0  0  0  0
  7  8  2  0  0  0  0
  7 10  1  0  0  0  0
  8 12  1  0  0  0  0
  8 13  1  0  0  0  0
  9 10  1  0  0  0  0
 11 16  1  0  0  0  0
 12 20  1  0  0  0  0
 13 17  2  0  0  0  0
 13 21  1  0  0  0  0
 14 16  1  0  0  0  0
 14 18  1  0  0  0  0
 15 16  1  0  0  0  0
 15 18  1  0  0  0  0
 16 19  1  0  0  0  0
 17 20  1  0  0  0  0
  1 22  1  0  0  0  0
  2 23  1  0  0  0  0
  3 24  1  0  0  0  0
  4 25  1  0  0  0  0
  5 26  1  0  0  0  0
  6 27  1  0  0  0  0
  7 28  1  0  0  0  0
 14 29  1  0  0  0  0
 14 30  1  0  0  0  0
 15 31  1  0  0  0  0
 15 32  1  0  0  0  0
 19 33  1  0  0  0  0
M  END
> <Chemgauss4 Score>
-7.070565223694

> <Number of Confs>
8

> <og_smiles_field>
OC1(C2=CC=C(C3=CC=C4SN=C(Cl)C4=C3)C=C2)COC1

$$$$

  -OEChem-03232314423D

 44 46  0     1  0  0  0  0  0999 V2000
   40.2066   33.4278   13.7031 C   0  0  0  0  0  0  0  0  0  0  0  0
   49.2955   35.4799   13.5265 C   0  0  0  0  0  0  0  0  0  0  0  0
   48.6096   37.2761   14.5933 C   0  0  0  0  0  0  0  0  0  0  0  0
   41.4231   32.7782   13.7533 C   0  0  0  0  0  0  0  0  0  0  0  0
   49.7546   36.6331   14.1908 C   0  0  0  0  0  0  0  0  0  0  0  0
   41.8964   32.3032   12.5472 C   0  0  0  0  0  0  0  0  0  0  0  0
   40.0659   33.0974   11.4585 C   0  0  0  0  0  0  0  0  0  0  0  0
   43.6959   34.5459   15.4218 C   0  0  0  0  0  0  0  0  0  0  0  0
   45.2509   37.0207   13.1867 C   0  0  0  0  0  0  0  0  0  0  0  0
   45.6571   38.2091   14.0011 C   0  0  0  0  0  0  0  0  0  0  0  0
   46.1583   36.8294   14.3887 C   0  0  0  0  0  0  0  0  0  0  0  0
   39.3121   33.2743   10.1842 C   0  0  0  0  0  0  0  0  0  0  0  0
   46.5918   36.0264   16.7367 C   0  0  0  0  0  0  0  0  0  0  0  0
   42.1553   32.6176   15.0541 C   0  0  0  0  0  0  0  0  0  0  0  0
   45.5590   36.1857   15.6306 C   0  0  2  0  0  0  0  0  0  0  0  0
   39.4982   33.6060   12.5687 N   0  0  0  0  0  0  0  0  0  0  0  0
   47.9628   35.3926   13.5062 N   0  0  0  0  0  0  0  0  0  0  0  0
   41.2414   32.4455   11.3763 N   0  0  0  0  0  0  0  0  0  0  0  0
   47.5747   36.4991   14.1627 N   0  0  0  0  0  0  0  0  0  0  0  0
   43.1412   31.6269   12.5359 N   0  0  0  0  0  0  0  0  0  0  0  0
   43.4614   33.2339   15.0190 N   0  0  0  0  0  0  0  0  0  0  0  0
   45.0400   34.8834   15.2846 N   0  0  0  0  0  0  0  0  0  0  0  0
   42.8291   35.3096   15.8451 O   0  0  0  0  0  0  0  0  0  0  0  0
   51.5311   37.1293   14.4402 Br  0  0  0  0  0  0  0  0  0  0  0  0
   39.7473   33.8384   14.5967 H   0  0  0  0  0  0  0  0  0  0  0  0
   49.8721   34.6965   13.0548 H   0  0  0  0  0  0  0  0  0  0  0  0
   48.4486   38.1979   15.1363 H   0  0  0  0  0  0  0  0  0  0  0  0
   44.2213   36.6899   13.2576 H   0  0  0  0  0  0  0  0  0  0  0  0
   45.6778   36.9207   12.1958 H   0  0  0  0  0  0  0  0  0  0  0  0
   46.3572   38.9072   13.5570 H   0  0  0  0  0  0  0  0  0  0  0  0
   44.9008   38.6780   14.6193 H   0  0  0  0  0  0  0  0  0  0  0  0
   39.6022   34.2127    9.6956 H   0  0  0  0  0  0  0  0  0  0  0  0
   39.5041   32.4466    9.4891 H   0  0  0  0  0  0  0  0  0  0  0  0
   38.2287   33.2950   10.3613 H   0  0  0  0  0  0  0  0  0  0  0  0
   47.4363   35.4181   16.3947 H   0  0  0  0  0  0  0  0  0  0  0  0
   46.1533   35.5359   17.6120 H   0  0  0  0  0  0  0  0  0  0  0  0
   46.9919   36.9960   17.0537 H   0  0  0  0  0  0  0  0  0  0  0  0
   41.5896   33.0727   15.8744 H   0  0  0  0  0  0  0  0  0  0  0  0
   42.2910   31.5593   15.3006 H   0  0  0  0  0  0  0  0  0  0  0  0
   44.7256   36.7962   15.9949 H   0  0  0  0  0  0  0  0  0  0  0  0
   43.6583   31.5556   13.3853 H   0  0  0  0  0  0  0  0  0  0  0  0
   43.5150   31.3211   11.6638 H   0  0  0  0  0  0  0  0  0  0  0  0
   44.2464   32.6837   14.6844 H   0  0  0  0  0  0  0  0  0  0  0  0
   45.6929   34.1725   14.9700 H   0  0  0  0  0  0  0  0  0  0  0  0
  1  4  2  0  0  0  0
  1 16  1  0  0  0  0
  2  5  1  0  0  0  0
  2 17  2  0  0  0  0
  3  5  2  0  0  0  0
  3 19  1  0  0  0  0
  4  6  1  0  0  0  0
  4 14  1  0  0  0  0
  5 24  1  0  0  0  0
  6 18  2  0  0  0  0
  6 20  1  0  0  0  0
  7 12  1  0  0  0  0
  7 16  2  0  0  0  0
  7 18  1  0  0  0  0
  8 21  1  0  0  0  0
  8 22  1  0  0  0  0
  8 23  2  0  0  0  0
  9 10  1  0  0  0  0
  9 11  1  0  0  0  0
 10 11  1  0  0  0  0
 11 15  1  0  0  0  0
 11 19  1  0  0  0  0
 13 15  1  0  0  0  0
 14 21  1  0  0  0  0
 15 22  1  0  0  0  0
 17 19  1  0  0  0  0
  1 25  1  0  0  0  0
  2 26  1  0  0  0  0
  3 27  1  0  0  0  0
  9 28  1  0  0  0  0
  9 29  1  0  0  0  0
 10 30  1  0  0  0  0
 10 31  1  0  0  0  0
 12 32  1  0  0  0  0
 12 33  1  0  0  0  0
 12 34  1  0  0  0  0
 13 35  1  0  0  0  0
 13 36  1  0  0  0  0
 13 37  1  0  0  0  0
 14 38  1  0  0  0  0
 14 39  1  0  0  0  0
 15 40  1  0  0  0  0
 20 41  1  0  0  0  0
 20 42  1  0  0  0  0
 21 43  1  0  0  0  0
 22 44  1  0  0  0  0
M  END
> <Chemgauss4 Score>
-6.188287734985

> <Number of Confs>
200

> <og_smiles_field>
CC1=NC=C(CNC(=O)NC(C)C2(N3C=C(Br)C=N3)CC2)C(N)=N1

$$$$

  -OEChem-03232314423D

 55 55  0     1  0  0  0  0  0999 V2000
   44.1340   34.7730   15.6385 C   0  0  0  0  0  0  0  0  0  0  0  0
   40.1069   33.2709   12.7906 C   0  0  0  0  0  0  0  0  0  0  0  0
   46.1478   36.4700   15.7015 C   0  0  0  0  0  0  0  0  0  0  0  0
   45.9184   35.3202   17.4952 C   0  0  0  0  0  0  0  0  0  0  0  0
   45.5934   35.0582   16.0056 C   0  0  0  0  0  0  0  0  0  0  0  0
   46.9045   36.4347   17.0559 C   0  0  0  0  0  0  0  0  0  0  0  0
   41.4038   31.5425   10.3015 C   0  0  0  0  0  0  0  0  0  0  0  0
   42.8521   34.4324   12.2249 C   0  0  0  0  0  0  0  0  0  0  0  0
   37.7511   34.6490   11.9273 C   0  0  0  0  0  0  0  0  0  0  0  0
   36.6396   32.3970   11.9774 C   0  0  0  0  0  0  0  0  0  0  0  0
   37.5552   33.3872   14.0962 C   0  0  0  0  0  0  0  0  0  0  0  0
   47.3530   38.7410   17.1137 C   0  0  0  0  0  0  0  0  0  0  0  0
   41.2973   31.3173   11.7714 C   0  0  0  0  0  0  0  0  0  0  0  0
   42.6618   33.1718   14.4338 C   0  0  0  0  0  0  0  0  0  0  0  0
   42.5899   33.0935   12.9072 C   0  0  1  0  0  0  0  0  0  0  0  0
   48.3604   35.9937   16.9698 C   0  0  0  0  0  0  0  0  0  0  0  0
   37.7369   33.2692   12.5837 C   0  0  0  0  0  0  0  0  0  0  0  0
   43.9567   33.6275   14.8864 N   0  0  0  0  0  0  0  0  0  0  0  0
   41.2956   32.5853   12.5008 N   0  0  0  0  0  0  0  0  0  0  0  0
   43.2552   35.5388   16.0164 O   0  0  0  0  0  0  0  0  0  0  0  0
   40.0586   34.3379   13.4003 O   0  0  0  0  0  0  0  0  0  0  0  0
   38.9910   32.6278   12.3236 O   0  0  0  0  0  0  0  0  0  0  0  0
   46.8161   37.6487   17.8319 O   0  0  0  0  0  0  0  0  0  0  0  0
   49.0511   36.8280   16.1760 F   0  0  0  0  0  0  0  0  0  0  0  0
   48.9188   35.9981   18.1909 F   0  0  0  0  0  0  0  0  0  0  0  0
   48.4391   34.7524   16.4635 F   0  0  0  0  0  0  0  0  0  0  0  0
   46.7720   36.5378   14.8049 H   0  0  0  0  0  0  0  0  0  0  0  0
   45.3798   37.2510   15.6450 H   0  0  0  0  0  0  0  0  0  0  0  0
   45.0686   35.6883   18.0826 H   0  0  0  0  0  0  0  0  0  0  0  0
   46.3610   34.4719   18.0263 H   0  0  0  0  0  0  0  0  0  0  0  0
   46.2401   34.2747   15.5869 H   0  0  0  0  0  0  0  0  0  0  0  0
   42.3369   32.0810   10.0792 H   0  0  0  0  0  0  0  0  0  0  0  0
   41.4072   30.5732    9.7815 H   0  0  0  0  0  0  0  0  0  0  0  0
   40.5457   32.1394    9.9590 H   0  0  0  0  0  0  0  0  0  0  0  0
   42.1223   35.1932   12.5223 H   0  0  0  0  0  0  0  0  0  0  0  0
   43.8437   34.8131   12.4943 H   0  0  0  0  0  0  0  0  0  0  0  0
   42.8153   34.3286   11.1356 H   0  0  0  0  0  0  0  0  0  0  0  0
   38.5374   35.2780   12.3597 H   0  0  0  0  0  0  0  0  0  0  0  0
   37.9156   34.5801   10.8471 H   0  0  0  0  0  0  0  0  0  0  0  0
   36.8049   35.1741   12.1005 H   0  0  0  0  0  0  0  0  0  0  0  0
   36.6257   31.4060   12.4454 H   0  0  0  0  0  0  0  0  0  0  0  0
   36.8185   32.2313   10.9089 H   0  0  0  0  0  0  0  0  0  0  0  0
   35.6505   32.8508   12.0971 H   0  0  0  0  0  0  0  0  0  0  0  0
   37.5450   32.3976   14.5673 H   0  0  0  0  0  0  0  0  0  0  0  0
   38.3546   33.9793   14.5535 H   0  0  0  0  0  0  0  0  0  0  0  0
   36.5938   33.8546   14.3379 H   0  0  0  0  0  0  0  0  0  0  0  0
   47.2764   39.6483   17.7179 H   0  0  0  0  0  0  0  0  0  0  0  0
   46.8047   38.8670   16.1767 H   0  0  0  0  0  0  0  0  0  0  0  0
   48.4042   38.5399   16.8942 H   0  0  0  0  0  0  0  0  0  0  0  0
   40.3623   30.7788   11.9853 H   0  0  0  0  0  0  0  0  0  0  0  0
   42.1534   30.7124   12.1049 H   0  0  0  0  0  0  0  0  0  0  0  0
   42.4663   32.1858   14.8702 H   0  0  0  0  0  0  0  0  0  0  0  0
   41.8923   33.8538   14.8115 H   0  0  0  0  0  0  0  0  0  0  0  0
   43.3527   32.3837   12.5660 H   0  0  0  0  0  0  0  0  0  0  0  0
   44.7754   33.0795   14.6397 H   0  0  0  0  0  0  0  0  0  0  0  0
  1  5  1  0  0  0  0
  1 18  1  0  0  0  0
  1 20  2  0  0  0  0
  2 19  1  0  0  0  0
  2 21  2  0  0  0  0
  2 22  1  0  0  0  0
  3  5  1  0  0  0  0
  3  6  1  0  0  0  0
  4  5  1  0  0  0  0
  4  6  1  0  0  0  0
  6 16  1  0  0  0  0
  6 23  1  0  0  0  0
  7 13  1  0  0  0  0
  8 15  1  0  0  0  0
  9 17  1  0  0  0  0
 10 17  1  0  0  0  0
 11 17  1  0  0  0  0
 12 23  1  0  0  0  0
 13 19  1  0  0  0  0
 14 15  1  0  0  0  0
 14 18  1  0  0  0  0
 15 19  1  0  0  0  0
 16 24  1  0  0  0  0
 16 25  1  0  0  0  0
 16 26  1  0  0  0  0
 17 22  1  0  0  0  0
  3 27  1  0  0  0  0
  3 28  1  0  0  0  0
  4 29  1  0  0  0  0
  4 30  1  0  0  0  0
  5 31  1  0  0  0  0
  7 32  1  0  0  0  0
  7 33  1  0  0  0  0
  7 34  1  0  0  0  0
  8 35  1  0  0  0  0
  8 36  1  0  0  0  0
  8 37  1  0  0  0  0
  9 38  1  0  0  0  0
  9 39  1  0  0  0  0
  9 40  1  0  0  0  0
 10 41  1  0  0  0  0
 10 42  1  0  0  0  0
 10 43  1  0  0  0  0
 11 44  1  0  0  0  0
 11 45  1  0  0  0  0
 11 46  1  0  0  0  0
 12 47  1  0  0  0  0
 12 48  1  0  0  0  0
 12 49  1  0  0  0  0
 13 50  1  0  0  0  0
 13 51  1  0  0  0  0
 14 52  1  0  0  0  0
 14 53  1  0  0  0  0
 15 54  1  0  0  0  0
 18 55  1  0  0  0  0
M  END
> <Chemgauss4 Score>
-5.646975994110

> <Number of Confs>
200

> <og_smiles_field>
CCN(C(=O)OC(C)(C)C)[C@@H](C)CNC(=O)C1CC(OC)(C(F)(F)F)C1

$$$$
