THLM013
  -OEChem-03232309143D

 48 51  0     0  0  0  0  0  0999 V2000
   53.0910   39.3380   16.3610 C   0  0  0  0  0  0  0  0  0  0  0  0
   51.9800   39.8260   17.0520 C   0  0  0  0  0  0  0  0  0  0  0  0
   47.0020   36.6580   14.5730 C   0  0  0  0  0  0  0  0  0  0  0  0
   47.1030   37.5910   16.7990 C   0  0  0  0  0  0  0  0  0  0  0  0
   46.3470   35.5330   15.0740 C   0  0  0  0  0  0  0  0  0  0  0  0
   46.4480   36.4660   17.3000 C   0  0  0  0  0  0  0  0  0  0  0  0
   52.9430   38.6520   15.1490 C   0  0  0  0  0  0  0  0  0  0  0  0
   50.6830   39.6480   16.5600 C   0  0  0  0  0  0  0  0  0  0  0  0
   41.0010   33.4890   14.5700 C   0  0  0  0  0  0  0  0  0  0  0  0
   41.8450   31.8820   13.2370 C   0  0  0  0  0  0  0  0  0  0  0  0
   49.9220   37.9450   13.4930 C   0  0  0  0  0  0  0  0  0  0  0  0
   40.6940   32.5800   13.5280 C   0  0  0  0  0  0  0  0  0  0  0  0
   47.3800   37.6870   15.4350 C   0  0  0  0  0  0  0  0  0  0  0  0
   46.0700   35.4370   16.4380 C   0  0  0  0  0  0  0  0  0  0  0  0
   51.6470   38.4640   14.6390 C   0  0  0  0  0  0  0  0  0  0  0  0
   50.5590   38.9620   15.3510 C   0  0  0  0  0  0  0  0  0  0  0  0
   42.3320   33.3190   14.8840 C   0  0  0  0  0  0  0  0  0  0  0  0
   39.4350   32.3870   12.8680 C   0  0  0  0  0  0  0  0  0  0  0  0
   43.1360   34.0320   15.9100 C   0  0  0  0  0  0  0  0  0  0  0  0
   38.2630   33.2350   13.3040 C   0  0  0  0  0  0  0  0  0  0  0  0
   48.0860   38.9010   14.8950 C   0  0  0  0  0  0  0  0  0  0  0  0
   45.3690   34.2350   16.9730 C   0  0  0  0  0  0  0  0  0  0  0  0
   51.2320   37.8350   13.4880 N   0  0  0  0  0  0  0  0  0  0  0  0
   42.8340   32.3400   14.0680 N   0  0  0  0  0  0  0  0  0  0  0  0
   49.4690   38.6160   14.5940 N   0  0  0  0  0  0  0  0  0  0  0  0
   44.4680   33.6530   16.0110 N   0  0  0  0  0  0  0  0  0  0  0  0
   39.2100   31.5700   11.9570 O   0  0  0  0  0  0  0  0  0  0  0  0
   42.5960   34.8830   16.6110 O   0  0  0  0  0  0  0  0  0  0  0  0
   54.0870   39.4910   16.7700 H   0  0  0  0  0  0  0  0  0  0  0  0
   52.1250   40.3540   17.9910 H   0  0  0  0  0  0  0  0  0  0  0  0
   47.2140   36.7240   13.5090 H   0  0  0  0  0  0  0  0  0  0  0  0
   47.3930   38.3890   17.4770 H   0  0  0  0  0  0  0  0  0  0  0  0
   46.0550   34.7360   14.3950 H   0  0  0  0  0  0  0  0  0  0  0  0
   46.2360   36.4000   18.3640 H   0  0  0  0  0  0  0  0  0  0  0  0
   53.8130   38.2770   14.6190 H   0  0  0  0  0  0  0  0  0  0  0  0
   49.8210   40.0280   17.0970 H   0  0  0  0  0  0  0  0  0  0  0  0
   40.3260   34.1920   15.0400 H   0  0  0  0  0  0  0  0  0  0  0  0
   42.0520   31.1030   12.5160 H   0  0  0  0  0  0  0  0  0  0  0  0
   49.2550   37.5610   12.7320 H   0  0  0  0  0  0  0  0  0  0  0  0
   38.1740   34.1810   12.7470 H   0  0  0  0  0  0  0  0  0  0  0  0
   38.2890   33.4850   14.3760 H   0  0  0  0  0  0  0  0  0  0  0  0
   37.2810   32.7500   13.1580 H   0  0  0  0  0  0  0  0  0  0  0  0
   47.6040   39.2650   13.9790 H   0  0  0  0  0  0  0  0  0  0  0  0
   48.0550   39.7290   15.6130 H   0  0  0  0  0  0  0  0  0  0  0  0
   46.0860   33.4550   17.2660 H   0  0  0  0  0  0  0  0  0  0  0  0
   44.7800   34.4770   17.8680 H   0  0  0  0  0  0  0  0  0  0  0  0
   43.7880   32.0040   14.0750 H   0  0  0  0  0  0  0  0  0  0  0  0
   44.8260   32.8950   15.4360 H   0  0  0  0  0  0  0  0  0  0  0  0
 18 27  2  0  0  0  0
 10 38  1  0  0  0  0
 11 39  1  0  0  0  0
 20 40  1  0  0  0  0
 18 20  1  0  0  0  0
 12 18  1  0  0  0  0
 20 42  1  0  0  0  0
 10 12  2  0  0  0  0
 10 24  1  0  0  0  0
 20 41  1  0  0  0  0
 11 23  2  0  0  0  0
 15 23  1  0  0  0  0
 11 25  1  0  0  0  0
  3 31  1  0  0  0  0
  9 12  1  0  0  0  0
 21 43  1  0  0  0  0
 24 47  1  0  0  0  0
 17 24  1  0  0  0  0
  5 33  1  0  0  0  0
  9 17  2  0  0  0  0
  9 37  1  0  0  0  0
  3  5  2  0  0  0  0
  3 13  1  0  0  0  0
 21 25  1  0  0  0  0
 16 25  1  0  0  0  0
  7 35  1  0  0  0  0
  7 15  2  0  0  0  0
 15 16  1  0  0  0  0
 17 19  1  0  0  0  0
 13 21  1  0  0  0  0
 21 44  1  0  0  0  0
  5 14  1  0  0  0  0
  1  7  1  0  0  0  0
  8 16  2  0  0  0  0
  4 13  2  0  0  0  0
 26 48  1  0  0  0  0
 19 26  1  0  0  0  0
 19 28  2  0  0  0  0
 22 26  1  0  0  0  0
  1 29  1  0  0  0  0
  1  2  2  0  0  0  0
 14 22  1  0  0  0  0
  6 14  2  0  0  0  0
  2  8  1  0  0  0  0
  8 36  1  0  0  0  0
  4  6  1  0  0  0  0
  4 32  1  0  0  0  0
 22 45  1  0  0  0  0
 22 46  1  0  0  0  0
  2 30  1  0  0  0  0
  6 34  1  0  0  0  0
M  END
$$$$
THLM021
  -OEChem-03232309143D

 43 46  0     0  0  0  0  0  0999 V2000
   40.3680   34.0470   10.7180 C   0  0  0  0  0  0  0  0  0  0  0  0
   40.2650   32.8820   11.4730 C   0  0  0  0  0  0  0  0  0  0  0  0
   41.1710   35.0980   11.1610 C   0  0  0  0  0  0  0  0  0  0  0  0
   40.9660   32.7640   12.6740 C   0  0  0  0  0  0  0  0  0  0  0  0
   43.3980   35.9270   14.0280 C   0  0  0  0  0  0  0  0  0  0  0  0
   47.5290   37.4530   17.4390 C   0  0  0  0  0  0  0  0  0  0  0  0
   41.8840   34.9970   12.3670 C   0  0  0  0  0  0  0  0  0  0  0  0
   41.7800   33.8120   13.1350 C   0  0  0  0  0  0  0  0  0  0  0  0
   43.2950   34.7620   14.7830 C   0  0  0  0  0  0  0  0  0  0  0  0
   42.6970   36.0450   12.8270 C   0  0  0  0  0  0  0  0  0  0  0  0
   42.4920   33.7110   14.3410 C   0  0  0  0  0  0  0  0  0  0  0  0
   47.2030   36.2100   16.9640 C   0  0  0  0  0  0  0  0  0  0  0  0
   49.2050   36.7260   16.1770 C   0  0  0  0  0  0  0  0  0  0  0  0
   50.7230   38.9720   16.5440 C   0  0  0  0  0  0  0  0  0  0  0  0
   51.2500   37.8970   15.7080 C   0  0  0  0  0  0  0  0  0  0  0  0
   49.5190   38.8990   17.1420 C   0  0  0  0  0  0  0  0  0  0  0  0
   50.5380   36.7720   15.4980 C   0  0  0  0  0  0  0  0  0  0  0  0
   44.0510   34.6650   16.0580 C   0  0  0  0  0  0  0  0  0  0  0  0
   50.9680   35.6150   14.6680 C   0  0  0  0  0  0  0  0  0  0  0  0
   46.0090   35.3830   17.1640 C   0  0  0  0  0  0  0  0  0  0  0  0
   48.7780   37.7550   16.9370 N   0  3  0  0  0  0  0  0  0  0  0  0
   48.2560   35.7850   16.1880 N   0  0  0  0  0  0  0  0  0  0  0  0
   43.6700   34.0050   17.0130 O   0  0  0  0  0  0  0  0  0  0  0  0
   42.8290   37.2050   12.1200 O   0  0  0  0  0  0  0  0  0  0  0  0
   42.4110   32.5780   15.1020 O   0  0  0  0  0  0  0  0  0  0  0  0
   45.1910   35.3990   15.9900 O   0  0  0  0  0  0  0  0  0  0  0  0
   39.8220   34.1380    9.7840 H   0  0  0  0  0  0  0  0  0  0  0  0
   39.6390   32.0650   11.1290 H   0  0  0  0  0  0  0  0  0  0  0  0
   41.2290   35.9930   10.5460 H   0  0  0  0  0  0  0  0  0  0  0  0
   40.8640   31.8400   13.2390 H   0  0  0  0  0  0  0  0  0  0  0  0
   44.0230   36.7490   14.3700 H   0  0  0  0  0  0  0  0  0  0  0  0
   47.0410   38.1710   18.0700 H   0  0  0  0  0  0  0  0  0  0  0  0
   51.3460   39.8510   16.6720 H   0  0  0  0  0  0  0  0  0  0  0  0
   52.2290   38.0410   15.2650 H   0  0  0  0  0  0  0  0  0  0  0  0
   49.1050   39.6800   17.7660 H   0  0  0  0  0  0  0  0  0  0  0  0
   50.6420   35.7530   13.6350 H   0  0  0  0  0  0  0  0  0  0  0  0
   50.5350   34.6920   15.0570 H   0  0  0  0  0  0  0  0  0  0  0  0
   52.0560   35.5240   14.6880 H   0  0  0  0  0  0  0  0  0  0  0  0
   46.2550   34.3250   17.3840 H   0  0  0  0  0  0  0  0  0  0  0  0
   45.3880   35.7370   18.0100 H   0  0  0  0  0  0  0  0  0  0  0  0
   48.3060   34.8950   15.6990 H   0  0  0  0  0  0  0  0  0  0  0  0
   43.4250   37.8110   12.5840 H   0  0  0  0  0  0  0  0  0  0  0  0
   41.8230   31.9360   14.6770 H   0  0  0  0  0  0  0  0  0  0  0  0
  1 27  1  0  0  0  0
  3 29  1  0  0  0  0
  1  3  2  0  0  0  0
  1  2  1  0  0  0  0
  2 28  1  0  0  0  0
  3  7  1  0  0  0  0
  2  4  2  0  0  0  0
 24 42  1  0  0  0  0
 10 24  1  0  0  0  0
  7 10  2  0  0  0  0
  7  8  1  0  0  0  0
  4  8  1  0  0  0  0
  4 30  1  0  0  0  0
  5 10  1  0  0  0  0
  8 11  2  0  0  0  0
 19 36  1  0  0  0  0
  5 31  1  0  0  0  0
  5  9  2  0  0  0  0
  9 11  1  0  0  0  0
 11 25  1  0  0  0  0
 19 38  1  0  0  0  0
 19 37  1  0  0  0  0
 17 19  1  0  0  0  0
 25 43  1  0  0  0  0
  9 18  1  0  0  0  0
 15 34  1  0  0  0  0
 15 17  2  0  0  0  0
 13 17  1  0  0  0  0
 22 41  1  0  0  0  0
 14 15  1  0  0  0  0
 18 26  1  0  0  0  0
 20 26  1  0  0  0  0
 18 23  2  0  0  0  0
 13 22  1  0  0  0  0
 13 21  2  0  0  0  0
 12 22  1  0  0  0  0
 14 33  1  0  0  0  0
 14 16  2  0  0  0  0
 16 21  1  0  0  0  0
  6 21  1  0  0  0  0
 12 20  1  0  0  0  0
  6 12  2  0  0  0  0
 16 35  1  0  0  0  0
 20 39  1  0  0  0  0
 20 40  1  0  0  0  0
  6 32  1  0  0  0  0
M  CHG  1  21   1
M  END
$$$$
THLM027
  -OEChem-03232309143D

 46 48  0     1  0  0  0  0  0999 V2000
   50.5100   38.6780   15.0290 C   0  0  0  0  0  0  0  0  0  0  0  0
   51.6540   37.9840   15.4410 C   0  0  0  0  0  0  0  0  0  0  0  0
   44.4500   36.4930   10.7470 C   0  0  0  0  0  0  0  0  0  0  0  0
   47.9670   38.3590   14.5420 C   0  0  0  0  0  0  0  0  0  0  0  0
   50.3920   35.9160   15.6380 C   0  0  0  0  0  0  0  0  0  0  0  0
   44.1830   37.6490   10.0480 C   0  0  0  0  0  0  0  0  0  0  0  0
   42.6350   37.3300   11.9330 C   0  0  0  0  0  0  0  0  0  0  0  0
   49.2880   37.9860   14.9190 C   0  0  0  0  0  0  0  0  0  0  0  0
   43.5540   36.3080   11.8390 C   0  0  0  0  0  0  0  0  0  0  0  0
   49.2570   36.6240   15.2260 C   0  0  0  0  0  0  0  0  0  0  0  0
   51.5930   36.6240   15.7400 C   0  0  0  0  0  0  0  0  0  0  0  0
   47.1750   37.2380   14.6260 C   0  0  0  0  0  0  0  0  0  0  0  0
   45.7790   37.1150   14.3460 C   0  0  0  0  0  0  0  0  0  0  0  0
   41.8500   34.1720   11.3010 C   0  0  0  0  0  0  0  0  0  0  0  0
   42.5910   32.9190   13.3210 C   0  0  0  0  0  0  0  0  0  0  0  0
   52.5970   34.5820   16.4310 C   0  0  0  0  0  0  0  0  0  0  0  0
   43.7910   35.5580   14.2430 C   0  0  0  0  0  0  0  0  0  0  0  0
   43.6070   35.1280   12.7840 C   0  0  1  0  0  0  0  0  0  0  0  0
   47.9620   36.1960   15.0390 N   0  0  0  0  0  0  0  0  0  0  0  0
   45.1820   35.8460   14.5060 N   0  0  0  0  0  0  0  0  0  0  0  0
   42.3790   34.2740   12.7040 N   0  3  0  0  0  0  0  0  0  0  0  0
   45.1000   38.0960   13.9500 O   0  0  0  0  0  0  0  0  0  0  0  0
   52.7220   35.9720   16.1390 O   0  0  0  0  0  0  0  0  0  0  0  0
   42.8550   38.5060   10.7080 S   0  0  0  0  0  0  0  0  0  0  0  0
   50.5710   39.7380   14.8010 H   0  0  0  0  0  0  0  0  0  0  0  0
   52.5960   38.5190   15.5250 H   0  0  0  0  0  0  0  0  0  0  0  0
   45.2530   35.8150   10.4850 H   0  0  0  0  0  0  0  0  0  0  0  0
   47.6360   39.3450   14.2440 H   0  0  0  0  0  0  0  0  0  0  0  0
   50.3400   34.8580   15.8700 H   0  0  0  0  0  0  0  0  0  0  0  0
   44.7030   38.0320    9.1820 H   0  0  0  0  0  0  0  0  0  0  0  0
   41.8440   37.4470   12.6610 H   0  0  0  0  0  0  0  0  0  0  0  0
   42.6100   33.6780   10.6920 H   0  0  0  0  0  0  0  0  0  0  0  0
   40.9300   33.5850   11.3320 H   0  0  0  0  0  0  0  0  0  0  0  0
   41.6570   35.1840   10.9420 H   0  0  0  0  0  0  0  0  0  0  0  0
   43.3630   32.4060   12.7440 H   0  0  0  0  0  0  0  0  0  0  0  0
   42.9090   33.0680   14.3550 H   0  0  0  0  0  0  0  0  0  0  0  0
   41.6430   32.3790   13.2760 H   0  0  0  0  0  0  0  0  0  0  0  0
   53.5680   34.1840   16.7360 H   0  0  0  0  0  0  0  0  0  0  0  0
   52.2370   34.0530   15.5440 H   0  0  0  0  0  0  0  0  0  0  0  0
   51.8800   34.4530   17.2450 H   0  0  0  0  0  0  0  0  0  0  0  0
   43.4780   34.7590   14.9250 H   0  0  0  0  0  0  0  0  0  0  0  0
   43.2020   36.4510   14.4820 H   0  0  0  0  0  0  0  0  0  0  0  0
   44.4280   34.4610   12.4930 H   0  0  0  0  0  0  0  0  0  0  0  0
   47.6420   35.2480   15.1840 H   0  0  0  0  0  0  0  0  0  0  0  0
   45.7740   35.0650   14.7660 H   0  0  0  0  0  0  0  0  0  0  0  0
   41.6500   34.7410   13.2620 H   0  0  0  0  0  0  0  0  0  0  0  0
  6 30  1  0  0  0  0
  6 24  1  0  0  0  0
  3  6  2  0  0  0  0
  3 27  1  0  0  0  0
 14 32  1  0  0  0  0
  7 24  1  0  0  0  0
  3  9  1  0  0  0  0
 14 34  1  0  0  0  0
 14 33  1  0  0  0  0
 14 21  1  0  0  0  0
  7  9  2  0  0  0  0
  9 18  1  0  0  0  0
  7 31  1  0  0  0  0
 18 43  1  0  0  0  0
 18 21  1  0  0  0  0
 21 46  1  0  0  0  0
 15 21  1  0  0  0  0
 15 35  1  0  0  0  0
 17 18  1  0  0  0  0
 15 37  1  0  0  0  0
 15 36  1  0  0  0  0
 13 22  2  0  0  0  0
 17 42  1  0  0  0  0
 17 20  1  0  0  0  0
 17 41  1  0  0  0  0
  4 28  1  0  0  0  0
 13 20  1  0  0  0  0
 12 13  1  0  0  0  0
 20 45  1  0  0  0  0
  4 12  2  0  0  0  0
  4  8  1  0  0  0  0
 12 19  1  0  0  0  0
  1 25  1  0  0  0  0
  1  8  2  0  0  0  0
  8 10  1  0  0  0  0
  1  2  1  0  0  0  0
 19 44  1  0  0  0  0
 10 19  1  0  0  0  0
  5 10  2  0  0  0  0
  2 26  1  0  0  0  0
  2 11  2  0  0  0  0
 16 39  1  0  0  0  0
  5 11  1  0  0  0  0
  5 29  1  0  0  0  0
 11 23  1  0  0  0  0
 16 23  1  0  0  0  0
 16 38  1  0  0  0  0
 16 40  1  0  0  0  0
M  CHG  1  21   1
M  END
$$$$
THLM009
  -OEChem-03232309143D

 53 56  0     1  0  0  0  0  0999 V2000
   37.9840   32.8760   12.8380 C   0  0  0  0  0  0  0  0  0  0  0  0
   48.1810   42.3580   15.7790 C   0  0  0  0  0  0  0  0  0  0  0  0
   47.1040   42.2130   16.6490 C   0  0  0  0  0  0  0  0  0  0  0  0
   38.1580   33.1780   14.1880 C   0  0  0  0  0  0  0  0  0  0  0  0
   39.0950   32.6440   12.0270 C   0  0  0  0  0  0  0  0  0  0  0  0
   48.9240   41.2410   15.3950 C   0  0  0  0  0  0  0  0  0  0  0  0
   46.7650   40.9510   17.1370 C   0  0  0  0  0  0  0  0  0  0  0  0
   49.3330   38.8280   15.5000 C   0  0  0  0  0  0  0  0  0  0  0  0
   39.4420   33.2480   14.7280 C   0  0  0  0  0  0  0  0  0  0  0  0
   40.3800   32.7130   12.5660 C   0  0  0  0  0  0  0  0  0  0  0  0
   48.9940   37.5660   15.9880 C   0  0  0  0  0  0  0  0  0  0  0  0
   47.1750   38.5380   17.2420 C   0  0  0  0  0  0  0  0  0  0  0  0
   48.5970   39.9630   15.8760 C   0  0  0  0  0  0  0  0  0  0  0  0
   47.5010   39.8160   16.7600 C   0  0  0  0  0  0  0  0  0  0  0  0
   40.5530   33.0150   13.9170 C   0  0  0  0  0  0  0  0  0  0  0  0
   47.9170   37.4210   16.8570 C   0  0  0  0  0  0  0  0  0  0  0  0
   46.1110   35.5770   15.1530 C   0  0  0  0  0  0  0  0  0  0  0  0
   45.1950   34.4220   17.1330 C   0  0  0  0  0  0  0  0  0  0  0  0
   44.7190   35.6770   14.5500 C   0  0  0  0  0  0  0  0  0  0  0  0
   43.7920   34.5100   16.5520 C   0  0  0  0  0  0  0  0  0  0  0  0
   42.5230   34.5000   14.4030 C   0  0  0  0  0  0  0  0  0  0  0  0
   41.9460   33.0910   14.5020 C   0  0  2  0  0  0  0  0  0  0  0  0
   46.0150   35.5660   16.6410 N   0  0  0  0  0  0  0  0  0  0  0  0
   43.8810   34.5210   15.0440 N   0  3  0  0  0  0  0  0  0  0  0  0
   48.4760   34.8820   16.9860 O   0  0  0  0  0  0  0  0  0  0  0  0
   47.2150   35.9490   18.8880 O   0  0  0  0  0  0  0  0  0  0  0  0
   42.7750   32.1890   13.7690 O   0  0  0  0  0  0  0  0  0  0  0  0
   47.4900   35.8230   17.4730 S   0  0  0  0  0  0  0  0  0  0  0  0
   36.9840   32.8210   12.4180 H   0  0  0  0  0  0  0  0  0  0  0  0
   48.4440   43.3410   15.3990 H   0  0  0  0  0  0  0  0  0  0  0  0
   46.5260   43.0830   16.9470 H   0  0  0  0  0  0  0  0  0  0  0  0
   37.2930   33.3580   14.8200 H   0  0  0  0  0  0  0  0  0  0  0  0
   38.9610   32.4070   10.9750 H   0  0  0  0  0  0  0  0  0  0  0  0
   49.7610   41.3780   14.7140 H   0  0  0  0  0  0  0  0  0  0  0  0
   45.9190   40.8610   17.8150 H   0  0  0  0  0  0  0  0  0  0  0  0
   50.1780   38.9170   14.8210 H   0  0  0  0  0  0  0  0  0  0  0  0
   39.5680   33.4840   15.7810 H   0  0  0  0  0  0  0  0  0  0  0  0
   41.2390   32.5310   11.9270 H   0  0  0  0  0  0  0  0  0  0  0  0
   49.5790   36.7020   15.6830 H   0  0  0  0  0  0  0  0  0  0  0  0
   46.3340   38.4120   17.9220 H   0  0  0  0  0  0  0  0  0  0  0  0
   46.6250   34.6730   14.8050 H   0  0  0  0  0  0  0  0  0  0  0  0
   46.6960   36.4480   14.8350 H   0  0  0  0  0  0  0  0  0  0  0  0
   45.1270   34.4690   18.2250 H   0  0  0  0  0  0  0  0  0  0  0  0
   45.6740   33.4750   16.8590 H   0  0  0  0  0  0  0  0  0  0  0  0
   44.2100   36.6020   14.8440 H   0  0  0  0  0  0  0  0  0  0  0  0
   44.7620   35.6100   13.4580 H   0  0  0  0  0  0  0  0  0  0  0  0
   43.1960   33.6380   16.8410 H   0  0  0  0  0  0  0  0  0  0  0  0
   43.2780   35.4280   16.8590 H   0  0  0  0  0  0  0  0  0  0  0  0
   41.9150   35.2370   14.9370 H   0  0  0  0  0  0  0  0  0  0  0  0
   42.6730   34.8210   13.3680 H   0  0  0  0  0  0  0  0  0  0  0  0
   41.9450   32.7580   15.5470 H   0  0  0  0  0  0  0  0  0  0  0  0
   44.3540   33.6530   14.7570 H   0  0  0  0  0  0  0  0  0  0  0  0
   42.3860   31.3080   13.8800 H   0  0  0  0  0  0  0  0  0  0  0  0
  5 33  1  0  0  0  0
 10 38  1  0  0  0  0
  5 10  2  0  0  0  0
  1  5  1  0  0  0  0
  1 29  1  0  0  0  0
 10 15  1  0  0  0  0
  1  4  2  0  0  0  0
 21 50  1  0  0  0  0
 19 46  1  0  0  0  0
 27 53  1  0  0  0  0
 22 27  1  0  0  0  0
 15 22  1  0  0  0  0
  9 15  2  0  0  0  0
  4  9  1  0  0  0  0
  4 32  1  0  0  0  0
 21 22  1  0  0  0  0
 21 49  1  0  0  0  0
 21 24  1  0  0  0  0
 22 51  1  0  0  0  0
 19 45  1  0  0  0  0
 19 24  1  0  0  0  0
 17 19  1  0  0  0  0
  6 34  1  0  0  0  0
  9 37  1  0  0  0  0
 24 52  1  0  0  0  0
 17 41  1  0  0  0  0
  8 36  1  0  0  0  0
 17 42  1  0  0  0  0
 20 24  1  0  0  0  0
 17 23  1  0  0  0  0
  2  6  2  0  0  0  0
  6 13  1  0  0  0  0
  2 30  1  0  0  0  0
  8 13  2  0  0  0  0
  8 11  1  0  0  0  0
 11 39  1  0  0  0  0
  2  3  1  0  0  0  0
 13 14  1  0  0  0  0
 11 16  2  0  0  0  0
 20 47  1  0  0  0  0
 20 48  1  0  0  0  0
 18 20  1  0  0  0  0
 18 23  1  0  0  0  0
 23 28  1  0  0  0  0
  3 31  1  0  0  0  0
  3  7  2  0  0  0  0
  7 14  1  0  0  0  0
 12 14  2  0  0  0  0
 12 16  1  0  0  0  0
 16 28  1  0  0  0  0
 18 44  1  0  0  0  0
 25 28  2  0  0  0  0
 18 43  1  0  0  0  0
  7 35  1  0  0  0  0
 12 40  1  0  0  0  0
 26 28  2  0  0  0  0
M  CHG  1  24   1
M  END
$$$$
THLM025
  -OEChem-03232309143D

 43 45  0     0  0  0  0  0  0999 V2000
   52.4890   40.2940   14.3810 C   0  0  0  0  0  0  0  0  0  0  0  0
   51.8760   41.5420   14.2710 C   0  0  0  0  0  0  0  0  0  0  0  0
   47.1930   37.6480   14.5560 C   0  0  0  0  0  0  0  0  0  0  0  0
   47.4030   40.0720   14.5130 C   0  0  0  0  0  0  0  0  0  0  0  0
   51.1800   39.8250   16.3570 C   0  0  0  0  0  0  0  0  0  0  0  0
   47.1790   38.8540   13.8520 C   0  0  0  0  0  0  0  0  0  0  0  0
   47.4200   37.6880   15.9210 C   0  0  0  0  0  0  0  0  0  0  0  0
   47.6430   38.9020   16.5810 C   0  0  0  0  0  0  0  0  0  0  0  0
   52.1410   39.4350   15.4240 C   0  0  0  0  0  0  0  0  0  0  0  0
   50.5670   41.0730   16.2470 C   0  0  0  0  0  0  0  0  0  0  0  0
   50.9150   41.9310   15.2050 C   0  0  0  0  0  0  0  0  0  0  0  0
   47.6440   40.1010   15.8890 C   0  0  0  0  0  0  0  0  0  0  0  0
   46.9330   38.8490   12.4000 C   0  0  0  0  0  0  0  0  0  0  0  0
   47.5190   36.5380   16.8730 C   0  0  0  0  0  0  0  0  0  0  0  0
   47.9110   38.6770   18.0350 C   0  0  0  0  0  0  0  0  0  0  0  0
   47.3610   37.2550   18.2220 C   0  0  0  0  0  0  0  0  0  0  0  0
   52.7970   38.1010   15.5410 C   0  0  0  0  0  0  0  0  0  0  0  0
   50.9580   44.2470   15.7460 C   0  0  0  0  0  0  0  0  0  0  0  0
   49.5780   41.4600   17.2170 N   0  0  0  0  0  0  0  0  0  0  0  0
   46.9240   39.9720   11.7700 O   0  0  0  0  0  0  0  0  0  0  0  0
   46.7340   37.7220   11.8090 O   0  5  0  0  0  0  0  0  0  0  0  0
   47.0930   41.6800   17.8710 O   0  0  0  0  0  0  0  0  0  0  0  0
   47.8560   42.6950   15.7060 O   0  0  0  0  0  0  0  0  0  0  0  0
   50.3270   43.1550   15.0800 O   0  0  0  0  0  0  0  0  0  0  0  0
   47.9460   41.6210   16.6890 S   0  0  0  0  0  0  0  0  0  0  0  0
   53.2370   39.9990   13.6500 H   0  0  0  0  0  0  0  0  0  0  0  0
   52.1520   42.2060   13.4570 H   0  0  0  0  0  0  0  0  0  0  0  0
   47.0310   36.7010   14.0500 H   0  0  0  0  0  0  0  0  0  0  0  0
   47.3950   41.0000   13.9460 H   0  0  0  0  0  0  0  0  0  0  0  0
   50.9110   39.1540   17.1690 H   0  0  0  0  0  0  0  0  0  0  0  0
   46.7300   35.7970   16.7200 H   0  0  0  0  0  0  0  0  0  0  0  0
   48.5030   36.0640   16.7900 H   0  0  0  0  0  0  0  0  0  0  0  0
   48.9880   38.7130   18.2310 H   0  0  0  0  0  0  0  0  0  0  0  0
   47.3870   39.3880   18.6800 H   0  0  0  0  0  0  0  0  0  0  0  0
   46.2920   37.3140   18.4730 H   0  0  0  0  0  0  0  0  0  0  0  0
   47.8540   36.7200   19.0400 H   0  0  0  0  0  0  0  0  0  0  0  0
   53.7020   38.1730   16.1570 H   0  0  0  0  0  0  0  0  0  0  0  0
   52.1230   37.3640   15.9970 H   0  0  0  0  0  0  0  0  0  0  0  0
   53.0780   37.7070   14.5550 H   0  0  0  0  0  0  0  0  0  0  0  0
   50.3890   45.1620   15.5660 H   0  0  0  0  0  0  0  0  0  0  0  0
   51.9790   44.3610   15.3730 H   0  0  0  0  0  0  0  0  0  0  0  0
   50.9850   44.0420   16.8190 H   0  0  0  0  0  0  0  0  0  0  0  0
   49.7120   41.0560   18.1530 H   0  0  0  0  0  0  0  0  0  0  0  0
 13 20  2  0  0  0  0
 13 21  1  0  0  0  0
  6 13  1  0  0  0  0
  2 27  1  0  0  0  0
  1 26  1  0  0  0  0
  4  6  2  0  0  0  0
  3  6  1  0  0  0  0
  4 29  1  0  0  0  0
  3 28  1  0  0  0  0
  1  2  2  0  0  0  0
  2 11  1  0  0  0  0
  1  9  1  0  0  0  0
  4 12  1  0  0  0  0
 17 39  1  0  0  0  0
  3  7  2  0  0  0  0
 11 24  1  0  0  0  0
 18 24  1  0  0  0  0
 10 11  2  0  0  0  0
 18 41  1  0  0  0  0
  9 17  1  0  0  0  0
  5  9  2  0  0  0  0
 17 38  1  0  0  0  0
 17 37  1  0  0  0  0
 18 40  1  0  0  0  0
 23 25  2  0  0  0  0
 18 42  1  0  0  0  0
  8 12  2  0  0  0  0
 12 25  1  0  0  0  0
  7  8  1  0  0  0  0
  7 14  1  0  0  0  0
  5 10  1  0  0  0  0
 10 19  1  0  0  0  0
  5 30  1  0  0  0  0
  8 15  1  0  0  0  0
 19 25  1  0  0  0  0
 22 25  2  0  0  0  0
 14 31  1  0  0  0  0
 14 32  1  0  0  0  0
 14 16  1  0  0  0  0
 19 43  1  0  0  0  0
 15 16  1  0  0  0  0
 15 33  1  0  0  0  0
 15 34  1  0  0  0  0
 16 35  1  0  0  0  0
 16 36  1  0  0  0  0
M  CHG  1  21  -1
M  END
$$$$
THLM040
  -OEChem-03232309143D

 40 44  0     0  0  0  0  0  0999 V2000
   50.4550   39.4000   17.5700 C   0  0  0  0  0  0  0  0  0  0  0  0
   51.7080   39.5220   16.9030 C   0  0  0  0  0  0  0  0  0  0  0  0
   46.0040   39.1680   17.8900 C   0  0  0  0  0  0  0  0  0  0  0  0
   41.0610   33.7040   14.7020 C   0  0  0  0  0  0  0  0  0  0  0  0
   43.3650   34.3270   15.9030 C   0  0  0  0  0  0  0  0  0  0  0  0
   47.2520   38.6780   17.5920 C   0  0  0  0  0  0  0  0  0  0  0  0
   44.6280   34.8680   16.3110 C   0  0  0  0  0  0  0  0  0  0  0  0
   47.9920   39.8110   17.2040 C   0  0  0  0  0  0  0  0  0  0  0  0
   49.4060   39.8200   16.7820 C   0  0  0  0  0  0  0  0  0  0  0  0
   45.0640   35.8630   15.4560 C   0  0  0  0  0  0  0  0  0  0  0  0
   42.5320   33.3340   16.4330 C   0  0  0  0  0  0  0  0  0  0  0  0
   42.9150   34.9440   14.7420 C   0  0  0  0  0  0  0  0  0  0  0  0
   51.5690   40.0300   15.6300 C   0  0  0  0  0  0  0  0  0  0  0  0
   47.6560   37.2660   17.6810 C   0  0  0  0  0  0  0  0  0  0  0  0
   45.4340   34.4750   17.5090 C   0  0  0  0  0  0  0  0  0  0  0  0
   46.3420   36.6290   15.5920 C   0  0  0  0  0  0  0  0  0  0  0  0
   46.8900   34.9340   17.3620 C   0  0  0  0  0  0  0  0  0  0  0  0
   41.3690   33.0230   15.8220 N   0  0  0  0  0  0  0  0  0  0  0  0
   41.7660   34.6730   14.0930 N   0  0  0  0  0  0  0  0  0  0  0  0
   47.2740   40.9360   17.2510 N   0  0  0  0  0  0  0  0  0  0  0  0
   46.0700   40.5120   17.6720 N   0  0  0  0  0  0  0  0  0  0  0  0
   46.9700   36.3300   16.8990 N   0  0  0  0  0  0  0  0  0  0  0  0
   42.8710   32.6450   17.6130 N   0  0  0  0  0  0  0  0  0  0  0  0
   48.5880   37.0130   18.4440 O   0  0  0  0  0  0  0  0  0  0  0  0
   49.9330   40.3580   15.2450 S   0  0  0  0  0  0  0  0  0  0  0  0
   43.9860   36.1390   14.1690 S   0  0  0  0  0  0  0  0  0  0  0  0
   52.8020   40.3420   14.4820 Cl  0  0  0  0  0  0  0  0  0  0  0  0
   50.3400   39.0220   18.5790 H   0  0  0  0  0  0  0  0  0  0  0  0
   52.6600   39.2480   17.3400 H   0  0  0  0  0  0  0  0  0  0  0  0
   45.0940   38.6940   18.2310 H   0  0  0  0  0  0  0  0  0  0  0  0
   40.1220   33.4350   14.2300 H   0  0  0  0  0  0  0  0  0  0  0  0
   44.9910   34.9280   18.4040 H   0  0  0  0  0  0  0  0  0  0  0  0
   45.4280   33.3880   17.6430 H   0  0  0  0  0  0  0  0  0  0  0  0
   47.0550   36.3220   14.8180 H   0  0  0  0  0  0  0  0  0  0  0  0
   46.1560   37.7020   15.4880 H   0  0  0  0  0  0  0  0  0  0  0  0
   47.4170   34.8030   18.3130 H   0  0  0  0  0  0  0  0  0  0  0  0
   47.4110   34.3230   16.6140 H   0  0  0  0  0  0  0  0  0  0  0  0
   45.3340   41.1980   17.7890 H   0  0  0  0  0  0  0  0  0  0  0  0
   43.7470   32.8360   18.0580 H   0  0  0  0  0  0  0  0  0  0  0  0
   42.2760   31.9090   17.9380 H   0  0  0  0  0  0  0  0  0  0  0  0
  4 19  2  0  0  0  0
 12 19  1  0  0  0  0
 12 26  1  0  0  0  0
 10 26  1  0  0  0  0
  4 31  1  0  0  0  0
 13 27  1  0  0  0  0
  4 18  1  0  0  0  0
  5 12  2  0  0  0  0
 16 34  1  0  0  0  0
 13 25  1  0  0  0  0
  9 25  1  0  0  0  0
 10 16  1  0  0  0  0
  7 10  2  0  0  0  0
 16 35  1  0  0  0  0
 16 22  1  0  0  0  0
  2 13  2  0  0  0  0
 11 18  2  0  0  0  0
  5  7  1  0  0  0  0
  5 11  1  0  0  0  0
  7 15  1  0  0  0  0
 11 23  1  0  0  0  0
 17 37  1  0  0  0  0
  8  9  1  0  0  0  0
  1  9  2  0  0  0  0
 17 22  1  0  0  0  0
 14 22  1  0  0  0  0
  2 29  1  0  0  0  0
  1  2  1  0  0  0  0
  8 20  2  0  0  0  0
  6  8  1  0  0  0  0
 20 21  1  0  0  0  0
 15 17  1  0  0  0  0
 17 36  1  0  0  0  0
 15 33  1  0  0  0  0
 15 32  1  0  0  0  0
  1 28  1  0  0  0  0
  6 14  1  0  0  0  0
  3  6  2  0  0  0  0
 23 40  1  0  0  0  0
 23 39  1  0  0  0  0
 21 38  1  0  0  0  0
  3 21  1  0  0  0  0
 14 24  2  0  0  0  0
  3 30  1  0  0  0  0
M  END
$$$$
